ELMER SOLVER (v 8.3) STARTED AT: 2020/04/27 16:39:12
ParCommInit:  Initialize #PEs:            1
MAIN: OMP_NUM_THREADS not set. Using only 1 thread per task.
MAIN: 
MAIN: =============================================================
MAIN: ElmerSolver finite element software, Welcome!
MAIN: This program is free software licensed under (L)GPL
MAIN: Copyright 1st April 1995 - , CSC - IT Center for Science Ltd.
MAIN: Webpage http://www.csc.fi/elmer, Email elmeradm@csc.fi
MAIN: Version: 8.3 (Rev: f90766a, Compiled: 2018-10-31)
MAIN:  Running one task without MPI parallelization.
MAIN:  Running with just one thread per task.
MAIN:  HYPRE library linked in.
MAIN:  MUMPS library linked in.
MAIN:  Lua interpreted linked in.
MAIN: =============================================================
MAIN: 
MAIN: 
MAIN: -------------------------------------
MAIN: Reading Model: case.sif
LoadInputFile: Scanning input file: case.sif
LoadInputFile: Loading input file: case.sif
Loading user function library: [HelmholtzSolve]...[HelmholtzSolver_Init0]
LoadMesh: Base mesh name: ./.
LoadMesh: Scaling coordinates: 1.000E-03 1.000E-03 1.000E-03
ERROR:: ElementMetric: Degenerate 3D element: -1
ElementMetric: Body Id: 0 DetG:   0.000E+00
ElementMetric: Node: 1 Coord:   0.000E+00   0.000E+00   0.000E+00
ElementMetric: Node: 2 Coord:   1.000E+00   0.000E+00   0.000E+00
ElementMetric: Node: 3 Coord:   0.000E+00   1.000E+00   0.000E+00
ElementMetric: Node: 4 Coord:   0.000E+00   0.000E+00   1.000E+00
ElementMetric: Node: 5 Coord:   5.000E-01   0.000E+00   0.000E+00
ElementMetric: Node: 6 Coord:   5.000E-01   5.000E-01   0.000E+00
ElementMetric: Node: 7 Coord:   0.000E+00   5.000E-01   0.000E+00
ElementMetric: Node: 8 Coord:   0.000E+00   0.000E+00   5.000E-01
ElementMetric: Node: 9 Coord:   5.000E-01   0.000E+00   5.000E-01
ElementMetric: Node: 10 Coord:   0.000E+00   5.000E-01   5.000E-01
ElementMetric: Node: 2 dCoord:   1.000E+00   0.000E+00   0.000E+00
ElementMetric: Node: 3 dCoord:   0.000E+00   1.000E+00   0.000E+00
ElementMetric: Node: 4 dCoord:   0.000E+00   0.000E+00   1.000E+00
ElementMetric: Node: 5 dCoord:   5.000E-01   0.000E+00   0.000E+00
ElementMetric: Node: 6 dCoord:   5.000E-01   5.000E-01   0.000E+00
ElementMetric: Node: 7 dCoord:   0.000E+00   5.000E-01   0.000E+00
ElementMetric: Node: 8 dCoord:   0.000E+00   0.000E+00   5.000E-01
ElementMetric: Node: 9 dCoord:   5.000E-01   0.000E+00   5.000E-01
ElementMetric: Node: 10 dCoord:   0.000E+00   5.000E-01   5.000E-01
ElementMetric: Element dim larger than meshdim: 3 vs. 0
ERROR:: ElementMetric: Degenerate 3D element: -1
ElementMetric: Body Id: 0 DetG:   0.000E+00
ElementMetric: Node: 1 Coord:   0.000E+00   0.000E+00   0.000E+00
ElementMetric: Node: 2 Coord:   1.000E+00   0.000E+00   0.000E+00
ElementMetric: Node: 3 Coord:   0.000E+00   1.000E+00   0.000E+00
ElementMetric: Node: 4 Coord:   0.000E+00   0.000E+00   1.000E+00
ElementMetric: Node: 5 Coord:   5.000E-01   0.000E+00   0.000E+00
ElementMetric: Node: 6 Coord:   5.000E-01   5.000E-01   0.000E+00
ElementMetric: Node: 7 Coord:   0.000E+00   5.000E-01   0.000E+00
ElementMetric: Node: 8 Coord:   0.000E+00   0.000E+00   5.000E-01
ElementMetric: Node: 9 Coord:   5.000E-01   0.000E+00   5.000E-01
ElementMetric: Node: 10 Coord:   0.000E+00   5.000E-01   5.000E-01
ElementMetric: Node: 2 dCoord:   1.000E+00   0.000E+00   0.000E+00
ElementMetric: Node: 3 dCoord:   0.000E+00   1.000E+00   0.000E+00
ElementMetric: Node: 4 dCoord:   0.000E+00   0.000E+00   1.000E+00
ElementMetric: Node: 5 dCoord:   5.000E-01   0.000E+00   0.000E+00
ElementMetric: Node: 6 dCoord:   5.000E-01   5.000E-01   0.000E+00
ElementMetric: Node: 7 dCoord:   0.000E+00   5.000E-01   0.000E+00
ElementMetric: Node: 8 dCoord:   0.000E+00   0.000E+00   5.000E-01
ElementMetric: Node: 9 dCoord:   5.000E-01   0.000E+00   5.000E-01
ElementMetric: Node: 10 dCoord:   0.000E+00   5.000E-01   5.000E-01
ElementMetric: Element dim larger than meshdim: 3 vs. 0
ERROR:: ElementMetric: Degenerate 3D element: -1
ElementMetric: Body Id: 0 DetG:   0.000E+00
ElementMetric: Node: 1 Coord:   0.000E+00   0.000E+00   0.000E+00
ElementMetric: Node: 2 Coord:   1.000E+00   0.000E+00   0.000E+00
ElementMetric: Node: 3 Coord:   0.000E+00   1.000E+00   0.000E+00
ElementMetric: Node: 4 Coord:   0.000E+00   0.000E+00   1.000E+00
ElementMetric: Node: 5 Coord:   5.000E-01   0.000E+00   0.000E+00
ElementMetric: Node: 6 Coord:   5.000E-01   5.000E-01   0.000E+00
ElementMetric: Node: 7 Coord:   0.000E+00   5.000E-01   0.000E+00
ElementMetric: Node: 8 Coord:   0.000E+00   0.000E+00   5.000E-01
ElementMetric: Node: 9 Coord:   5.000E-01   0.000E+00   5.000E-01
ElementMetric: Node: 10 Coord:   0.000E+00   5.000E-01   5.000E-01
ElementMetric: Node: 2 dCoord:   1.000E+00   0.000E+00   0.000E+00
ElementMetric: Node: 3 dCoord:   0.000E+00   1.000E+00   0.000E+00
ElementMetric: Node: 4 dCoord:   0.000E+00   0.000E+00   1.000E+00
ElementMetric: Node: 5 dCoord:   5.000E-01   0.000E+00   0.000E+00
ElementMetric: Node: 6 dCoord:   5.000E-01   5.000E-01   0.000E+00
ElementMetric: Node: 7 dCoord:   0.000E+00   5.000E-01   0.000E+00
ElementMetric: Node: 8 dCoord:   0.000E+00   0.000E+00   5.000E-01
ElementMetric: Node: 9 dCoord:   5.000E-01   0.000E+00   5.000E-01
ElementMetric: Node: 10 dCoord:   0.000E+00   5.000E-01   5.000E-01
ElementMetric: Element dim larger than meshdim: 3 vs. 0
ERROR:: ElementMetric: Degenerate 3D element: -1
ElementMetric: Body Id: 0 DetG:   0.000E+00
ElementMetric: Node: 1 Coord:   0.000E+00   0.000E+00   0.000E+00
ElementMetric: Node: 2 Coord:   1.000E+00   0.000E+00   0.000E+00
ElementMetric: Node: 3 Coord:   0.000E+00   1.000E+00   0.000E+00
ElementMetric: Node: 4 Coord:   0.000E+00   0.000E+00   1.000E+00
ElementMetric: Node: 5 Coord:   5.000E-01   0.000E+00   0.000E+00
ElementMetric: Node: 6 Coord:   5.000E-01   5.000E-01   0.000E+00
ElementMetric: Node: 7 Coord:   0.000E+00   5.000E-01   0.000E+00
ElementMetric: Node: 8 Coord:   0.000E+00   0.000E+00   5.000E-01
ElementMetric: Node: 9 Coord:   5.000E-01   0.000E+00   5.000E-01
ElementMetric: Node: 10 Coord:   0.000E+00   5.000E-01   5.000E-01
ElementMetric: Node: 2 dCoord:   1.000E+00   0.000E+00   0.000E+00
ElementMetric: Node: 3 dCoord:   0.000E+00   1.000E+00   0.000E+00
ElementMetric: Node: 4 dCoord:   0.000E+00   0.000E+00   1.000E+00
ElementMetric: Node: 5 dCoord:   5.000E-01   0.000E+00   0.000E+00
ElementMetric: Node: 6 dCoord:   5.000E-01   5.000E-01   0.000E+00
ElementMetric: Node: 7 dCoord:   0.000E+00   5.000E-01   0.000E+00
ElementMetric: Node: 8 dCoord:   0.000E+00   0.000E+00   5.000E-01
ElementMetric: Node: 9 dCoord:   5.000E-01   0.000E+00   5.000E-01
ElementMetric: Node: 10 dCoord:   0.000E+00   5.000E-01   5.000E-01
ElementMetric: Element dim larger than meshdim: 3 vs. 0
ERROR:: ElementMetric: Degenerate 3D element: -1
ElementMetric: Body Id: 0 DetG:   0.000E+00
ElementMetric: Node: 1 Coord:   0.000E+00   0.000E+00   0.000E+00
ElementMetric: Node: 2 Coord:   1.000E+00   0.000E+00   0.000E+00
ElementMetric: Node: 3 Coord:   0.000E+00   1.000E+00   0.000E+00
ElementMetric: Node: 4 Coord:   0.000E+00   0.000E+00   1.000E+00
ElementMetric: Node: 5 Coord:   5.000E-01   0.000E+00   0.000E+00
ElementMetric: Node: 6 Coord:   5.000E-01   5.000E-01   0.000E+00
ElementMetric: Node: 7 Coord:   0.000E+00   5.000E-01   0.000E+00
ElementMetric: Node: 8 Coord:   0.000E+00   0.000E+00   5.000E-01
ElementMetric: Node: 9 Coord:   5.000E-01   0.000E+00   5.000E-01
ElementMetric: Node: 10 Coord:   0.000E+00   5.000E-01   5.000E-01
ElementMetric: Node: 2 dCoord:   1.000E+00   0.000E+00   0.000E+00
ElementMetric: Node: 3 dCoord:   0.000E+00   1.000E+00   0.000E+00
ElementMetric: Node: 4 dCoord:   0.000E+00   0.000E+00   1.000E+00
ElementMetric: Node: 5 dCoord:   5.000E-01   0.000E+00   0.000E+00
ElementMetric: Node: 6 dCoord:   5.000E-01   5.000E-01   0.000E+00
ElementMetric: Node: 7 dCoord:   0.000E+00   5.000E-01   0.000E+00
ElementMetric: Node: 8 dCoord:   0.000E+00   0.000E+00   5.000E-01
ElementMetric: Node: 9 dCoord:   5.000E-01   0.000E+00   5.000E-01
ElementMetric: Node: 10 dCoord:   0.000E+00   5.000E-01   5.000E-01
ElementMetric: Element dim larger than meshdim: 3 vs. 0
ERROR:: ElementMetric: Degenerate 3D element: -1
ElementMetric: Body Id: 0 DetG:   0.000E+00
ElementMetric: Node: 1 Coord:   0.000E+00   0.000E+00   0.000E+00
ElementMetric: Node: 2 Coord:   1.000E+00   0.000E+00   0.000E+00
ElementMetric: Node: 3 Coord:   0.000E+00   1.000E+00   0.000E+00
ElementMetric: Node: 4 Coord:   0.000E+00   0.000E+00   1.000E+00
ElementMetric: Node: 5 Coord:   5.000E-01   0.000E+00   0.000E+00
ElementMetric: Node: 6 Coord:   5.000E-01   5.000E-01   0.000E+00
ElementMetric: Node: 7 Coord:   0.000E+00   5.000E-01   0.000E+00
ElementMetric: Node: 8 Coord:   0.000E+00   0.000E+00   5.000E-01
ElementMetric: Node: 9 Coord:   5.000E-01   0.000E+00   5.000E-01
ElementMetric: Node: 10 Coord:   0.000E+00   5.000E-01   5.000E-01
ElementMetric: Node: 2 dCoord:   1.000E+00   0.000E+00   0.000E+00
ElementMetric: Node: 3 dCoord:   0.000E+00   1.000E+00   0.000E+00
ElementMetric: Node: 4 dCoord:   0.000E+00   0.000E+00   1.000E+00
ElementMetric: Node: 5 dCoord:   5.000E-01   0.000E+00   0.000E+00
ElementMetric: Node: 6 dCoord:   5.000E-01   5.000E-01   0.000E+00
ElementMetric: Node: 7 dCoord:   0.000E+00   5.000E-01   0.000E+00
ElementMetric: Node: 8 dCoord:   0.000E+00   0.000E+00   5.000E-01
ElementMetric: Node: 9 dCoord:   5.000E-01   0.000E+00   5.000E-01
ElementMetric: Node: 10 dCoord:   0.000E+00   5.000E-01   5.000E-01
ElementMetric: Element dim larger than meshdim: 3 vs. 0
ERROR:: ElementMetric: Degenerate 3D element: -1
ElementMetric: Body Id: 0 DetG:   0.000E+00
ElementMetric: Node: 1 Coord:   0.000E+00   0.000E+00   0.000E+00
ElementMetric: Node: 2 Coord:   1.000E+00   0.000E+00   0.000E+00
ElementMetric: Node: 3 Coord:   0.000E+00   1.000E+00   0.000E+00
ElementMetric: Node: 4 Coord:   0.000E+00   0.000E+00   1.000E+00
ElementMetric: Node: 5 Coord:   5.000E-01   0.000E+00   0.000E+00
ElementMetric: Node: 6 Coord:   5.000E-01   5.000E-01   0.000E+00
ElementMetric: Node: 7 Coord:   0.000E+00   5.000E-01   0.000E+00
ElementMetric: Node: 8 Coord:   0.000E+00   0.000E+00   5.000E-01
ElementMetric: Node: 9 Coord:   5.000E-01   0.000E+00   5.000E-01
ElementMetric: Node: 10 Coord:   0.000E+00   5.000E-01   5.000E-01
ElementMetric: Node: 2 dCoord:   1.000E+00   0.000E+00   0.000E+00
ElementMetric: Node: 3 dCoord:   0.000E+00   1.000E+00   0.000E+00
ElementMetric: Node: 4 dCoord:   0.000E+00   0.000E+00   1.000E+00
ElementMetric: Node: 5 dCoord:   5.000E-01   0.000E+00   0.000E+00
ElementMetric: Node: 6 dCoord:   5.000E-01   5.000E-01   0.000E+00
ElementMetric: Node: 7 dCoord:   0.000E+00   5.000E-01   0.000E+00
ElementMetric: Node: 8 dCoord:   0.000E+00   0.000E+00   5.000E-01
ElementMetric: Node: 9 dCoord:   5.000E-01   0.000E+00   5.000E-01
ElementMetric: Node: 10 dCoord:   0.000E+00   5.000E-01   5.000E-01
ElementMetric: Element dim larger than meshdim: 3 vs. 0
ERROR:: ElementMetric: Degenerate 3D element: -1
ElementMetric: Body Id: 0 DetG:   0.000E+00
ElementMetric: Node: 1 Coord:   0.000E+00   0.000E+00   0.000E+00
ElementMetric: Node: 2 Coord:   1.000E+00   0.000E+00   0.000E+00
ElementMetric: Node: 3 Coord:   0.000E+00   1.000E+00   0.000E+00
ElementMetric: Node: 4 Coord:   0.000E+00   0.000E+00   1.000E+00
ElementMetric: Node: 5 Coord:   5.000E-01   0.000E+00   0.000E+00
ElementMetric: Node: 6 Coord:   5.000E-01   5.000E-01   0.000E+00
ElementMetric: Node: 7 Coord:   0.000E+00   5.000E-01   0.000E+00
ElementMetric: Node: 8 Coord:   0.000E+00   0.000E+00   5.000E-01
ElementMetric: Node: 9 Coord:   5.000E-01   0.000E+00   5.000E-01
ElementMetric: Node: 10 Coord:   0.000E+00   5.000E-01   5.000E-01
ElementMetric: Node: 2 dCoord:   1.000E+00   0.000E+00   0.000E+00
ElementMetric: Node: 3 dCoord:   0.000E+00   1.000E+00   0.000E+00
ElementMetric: Node: 4 dCoord:   0.000E+00   0.000E+00   1.000E+00
ElementMetric: Node: 5 dCoord:   5.000E-01   0.000E+00   0.000E+00
ElementMetric: Node: 6 dCoord:   5.000E-01   5.000E-01   0.000E+00
ElementMetric: Node: 7 dCoord:   0.000E+00   5.000E-01   0.000E+00
ElementMetric: Node: 8 dCoord:   0.000E+00   0.000E+00   5.000E-01
ElementMetric: Node: 9 dCoord:   5.000E-01   0.000E+00   5.000E-01
ElementMetric: Node: 10 dCoord:   0.000E+00   5.000E-01   5.000E-01
ElementMetric: Element dim larger than meshdim: 3 vs. 0
ERROR:: ElementMetric: Degenerate 3D element: -1
ElementMetric: Body Id: 0 DetG:   0.000E+00
ElementMetric: Node: 1 Coord:   0.000E+00   0.000E+00   0.000E+00
ElementMetric: Node: 2 Coord:   1.000E+00   0.000E+00   0.000E+00
ElementMetric: Node: 3 Coord:   0.000E+00   1.000E+00   0.000E+00
ElementMetric: Node: 4 Coord:   0.000E+00   0.000E+00   1.000E+00
ElementMetric: Node: 5 Coord:   5.000E-01   0.000E+00   0.000E+00
ElementMetric: Node: 6 Coord:   5.000E-01   5.000E-01   0.000E+00
ElementMetric: Node: 7 Coord:   0.000E+00   5.000E-01   0.000E+00
ElementMetric: Node: 8 Coord:   0.000E+00   0.000E+00   5.000E-01
ElementMetric: Node: 9 Coord:   5.000E-01   0.000E+00   5.000E-01
ElementMetric: Node: 10 Coord:   0.000E+00   5.000E-01   5.000E-01
ElementMetric: Node: 2 dCoord:   1.000E+00   0.000E+00   0.000E+00
ElementMetric: Node: 3 dCoord:   0.000E+00   1.000E+00   0.000E+00
ElementMetric: Node: 4 dCoord:   0.000E+00   0.000E+00   1.000E+00
ElementMetric: Node: 5 dCoord:   5.000E-01   0.000E+00   0.000E+00
ElementMetric: Node: 6 dCoord:   5.000E-01   5.000E-01   0.000E+00
ElementMetric: Node: 7 dCoord:   0.000E+00   5.000E-01   0.000E+00
ElementMetric: Node: 8 dCoord:   0.000E+00   0.000E+00   5.000E-01
ElementMetric: Node: 9 dCoord:   5.000E-01   0.000E+00   5.000E-01
ElementMetric: Node: 10 dCoord:   0.000E+00   5.000E-01   5.000E-01
ElementMetric: Element dim larger than meshdim: 3 vs. 0
ERROR:: ElementMetric: Degenerate 3D element: -1
ElementMetric: Body Id: 0 DetG:   0.000E+00
ElementMetric: Node: 1 Coord:   0.000E+00   0.000E+00   0.000E+00
ElementMetric: Node: 2 Coord:   1.000E+00   0.000E+00   0.000E+00
ElementMetric: Node: 3 Coord:   0.000E+00   1.000E+00   0.000E+00
ElementMetric: Node: 4 Coord:   0.000E+00   0.000E+00   1.000E+00
ElementMetric: Node: 5 Coord:   5.000E-01   0.000E+00   0.000E+00
ElementMetric: Node: 6 Coord:   5.000E-01   5.000E-01   0.000E+00
ElementMetric: Node: 7 Coord:   0.000E+00   5.000E-01   0.000E+00
ElementMetric: Node: 8 Coord:   0.000E+00   0.000E+00   5.000E-01
ElementMetric: Node: 9 Coord:   5.000E-01   0.000E+00   5.000E-01
ElementMetric: Node: 10 Coord:   0.000E+00   5.000E-01   5.000E-01
ElementMetric: Node: 2 dCoord:   1.000E+00   0.000E+00   0.000E+00
ElementMetric: Node: 3 dCoord:   0.000E+00   1.000E+00   0.000E+00
ElementMetric: Node: 4 dCoord:   0.000E+00   0.000E+00   1.000E+00
ElementMetric: Node: 5 dCoord:   5.000E-01   0.000E+00   0.000E+00
ElementMetric: Node: 6 dCoord:   5.000E-01   5.000E-01   0.000E+00
ElementMetric: Node: 7 dCoord:   0.000E+00   5.000E-01   0.000E+00
ElementMetric: Node: 8 dCoord:   0.000E+00   0.000E+00   5.000E-01
ElementMetric: Node: 9 dCoord:   5.000E-01   0.000E+00   5.000E-01
ElementMetric: Node: 10 dCoord:   0.000E+00   5.000E-01   5.000E-01
ElementMetric: Element dim larger than meshdim: 3 vs. 0
ERROR:: ElementMetric: Degenerate 3D element: -1
ElementMetric: Body Id: 0 DetG:   0.000E+00
ElementMetric: Node: 1 Coord:   0.000E+00   0.000E+00   0.000E+00
ElementMetric: Node: 2 Coord:   1.000E+00   0.000E+00   0.000E+00
ElementMetric: Node: 3 Coord:   0.000E+00   1.000E+00   0.000E+00
ElementMetric: Node: 4 Coord:   0.000E+00   0.000E+00   1.000E+00
ElementMetric: Node: 5 Coord:   5.000E-01   0.000E+00   0.000E+00
ElementMetric: Node: 6 Coord:   5.000E-01   5.000E-01   0.000E+00
ElementMetric: Node: 7 Coord:   0.000E+00   5.000E-01   0.000E+00
ElementMetric: Node: 8 Coord:   0.000E+00   0.000E+00   5.000E-01
ElementMetric: Node: 9 Coord:   5.000E-01   0.000E+00   5.000E-01
ElementMetric: Node: 10 Coord:   0.000E+00   5.000E-01   5.000E-01
ElementMetric: Node: 2 dCoord:   1.000E+00   0.000E+00   0.000E+00
ElementMetric: Node: 3 dCoord:   0.000E+00   1.000E+00   0.000E+00
ElementMetric: Node: 4 dCoord:   0.000E+00   0.000E+00   1.000E+00
ElementMetric: Node: 5 dCoord:   5.000E-01   0.000E+00   0.000E+00
ElementMetric: Node: 6 dCoord:   5.000E-01   5.000E-01   0.000E+00
ElementMetric: Node: 7 dCoord:   0.000E+00   5.000E-01   0.000E+00
ElementMetric: Node: 8 dCoord:   0.000E+00   0.000E+00   5.000E-01
ElementMetric: Node: 9 dCoord:   5.000E-01   0.000E+00   5.000E-01
ElementMetric: Node: 10 dCoord:   0.000E+00   5.000E-01   5.000E-01
ElementMetric: Element dim larger than meshdim: 3 vs. 0
ERROR:: ElementMetric: Degenerate 3D element: -1
ElementMetric: Body Id: 0 DetG:   0.000E+00
ElementMetric: Node: 1 Coord:   0.000E+00   0.000E+00   0.000E+00
ElementMetric: Node: 2 Coord:   1.000E+00   0.000E+00   0.000E+00
ElementMetric: Node: 3 Coord:   0.000E+00   1.000E+00   0.000E+00
ElementMetric: Node: 4 Coord:   0.000E+00   0.000E+00   1.000E+00
ElementMetric: Node: 5 Coord:   5.000E-01   0.000E+00   0.000E+00
ElementMetric: Node: 6 Coord:   5.000E-01   5.000E-01   0.000E+00
ElementMetric: Node: 7 Coord:   0.000E+00   5.000E-01   0.000E+00
ElementMetric: Node: 8 Coord:   0.000E+00   0.000E+00   5.000E-01
ElementMetric: Node: 9 Coord:   5.000E-01   0.000E+00   5.000E-01
ElementMetric: Node: 10 Coord:   0.000E+00   5.000E-01   5.000E-01
ElementMetric: Node: 2 dCoord:   1.000E+00   0.000E+00   0.000E+00
ElementMetric: Node: 3 dCoord:   0.000E+00   1.000E+00   0.000E+00
ElementMetric: Node: 4 dCoord:   0.000E+00   0.000E+00   1.000E+00
ElementMetric: Node: 5 dCoord:   5.000E-01   0.000E+00   0.000E+00
ElementMetric: Node: 6 dCoord:   5.000E-01   5.000E-01   0.000E+00
ElementMetric: Node: 7 dCoord:   0.000E+00   5.000E-01   0.000E+00
ElementMetric: Node: 8 dCoord:   0.000E+00   0.000E+00   5.000E-01
ElementMetric: Node: 9 dCoord:   5.000E-01   0.000E+00   5.000E-01
ElementMetric: Node: 10 dCoord:   0.000E+00   5.000E-01   5.000E-01
ElementMetric: Element dim larger than meshdim: 3 vs. 0
ERROR:: ElementMetric: Degenerate 3D element: -1
ElementMetric: Body Id: 0 DetG:   0.000E+00
ElementMetric: Node: 1 Coord:   0.000E+00   0.000E+00   0.000E+00
ElementMetric: Node: 2 Coord:   1.000E+00   0.000E+00   0.000E+00
ElementMetric: Node: 3 Coord:   0.000E+00   1.000E+00   0.000E+00
ElementMetric: Node: 4 Coord:   0.000E+00   0.000E+00   1.000E+00
ElementMetric: Node: 5 Coord:   5.000E-01   0.000E+00   0.000E+00
ElementMetric: Node: 6 Coord:   5.000E-01   5.000E-01   0.000E+00
ElementMetric: Node: 7 Coord:   0.000E+00   5.000E-01   0.000E+00
ElementMetric: Node: 8 Coord:   0.000E+00   0.000E+00   5.000E-01
ElementMetric: Node: 9 Coord:   5.000E-01   0.000E+00   5.000E-01
ElementMetric: Node: 10 Coord:   0.000E+00   5.000E-01   5.000E-01
ElementMetric: Node: 2 dCoord:   1.000E+00   0.000E+00   0.000E+00
ElementMetric: Node: 3 dCoord:   0.000E+00   1.000E+00   0.000E+00
ElementMetric: Node: 4 dCoord:   0.000E+00   0.000E+00   1.000E+00
ElementMetric: Node: 5 dCoord:   5.000E-01   0.000E+00   0.000E+00
ElementMetric: Node: 6 dCoord:   5.000E-01   5.000E-01   0.000E+00
ElementMetric: Node: 7 dCoord:   0.000E+00   5.000E-01   0.000E+00
ElementMetric: Node: 8 dCoord:   0.000E+00   0.000E+00   5.000E-01
ElementMetric: Node: 9 dCoord:   5.000E-01   0.000E+00   5.000E-01
ElementMetric: Node: 10 dCoord:   0.000E+00   5.000E-01   5.000E-01
ElementMetric: Element dim larger than meshdim: 3 vs. 0
ERROR:: ElementMetric: Degenerate 3D element: -1
ElementMetric: Body Id: 0 DetG:   0.000E+00
ElementMetric: Node: 1 Coord:   0.000E+00   0.000E+00   0.000E+00
ElementMetric: Node: 2 Coord:   1.000E+00   0.000E+00   0.000E+00
ElementMetric: Node: 3 Coord:   0.000E+00   1.000E+00   0.000E+00
ElementMetric: Node: 4 Coord:   0.000E+00   0.000E+00   1.000E+00
ElementMetric: Node: 5 Coord:   5.000E-01   0.000E+00   0.000E+00
ElementMetric: Node: 6 Coord:   5.000E-01   5.000E-01   0.000E+00
ElementMetric: Node: 7 Coord:   0.000E+00   5.000E-01   0.000E+00
ElementMetric: Node: 8 Coord:   0.000E+00   0.000E+00   5.000E-01
ElementMetric: Node: 9 Coord:   5.000E-01   0.000E+00   5.000E-01
ElementMetric: Node: 10 Coord:   0.000E+00   5.000E-01   5.000E-01
ElementMetric: Node: 2 dCoord:   1.000E+00   0.000E+00   0.000E+00
ElementMetric: Node: 3 dCoord:   0.000E+00   1.000E+00   0.000E+00
ElementMetric: Node: 4 dCoord:   0.000E+00   0.000E+00   1.000E+00
ElementMetric: Node: 5 dCoord:   5.000E-01   0.000E+00   0.000E+00
ElementMetric: Node: 6 dCoord:   5.000E-01   5.000E-01   0.000E+00
ElementMetric: Node: 7 dCoord:   0.000E+00   5.000E-01   0.000E+00
ElementMetric: Node: 8 dCoord:   0.000E+00   0.000E+00   5.000E-01
ElementMetric: Node: 9 dCoord:   5.000E-01   0.000E+00   5.000E-01
ElementMetric: Node: 10 dCoord:   0.000E+00   5.000E-01   5.000E-01
ElementMetric: Element dim larger than meshdim: 3 vs. 0
ERROR:: ElementMetric: Degenerate 3D element: -1
ElementMetric: Body Id: 0 DetG:   0.000E+00
ElementMetric: Node: 1 Coord:   0.000E+00   0.000E+00   0.000E+00
ElementMetric: Node: 2 Coord:   1.000E+00   0.000E+00   0.000E+00
ElementMetric: Node: 3 Coord:   0.000E+00   1.000E+00   0.000E+00
ElementMetric: Node: 4 Coord:   0.000E+00   0.000E+00   1.000E+00
ElementMetric: Node: 5 Coord:   5.000E-01   0.000E+00   0.000E+00
ElementMetric: Node: 6 Coord:   5.000E-01   5.000E-01   0.000E+00
ElementMetric: Node: 7 Coord:   0.000E+00   5.000E-01   0.000E+00
ElementMetric: Node: 8 Coord:   0.000E+00   0.000E+00   5.000E-01
ElementMetric: Node: 9 Coord:   5.000E-01   0.000E+00   5.000E-01
ElementMetric: Node: 10 Coord:   0.000E+00   5.000E-01   5.000E-01
ElementMetric: Node: 2 dCoord:   1.000E+00   0.000E+00   0.000E+00
ElementMetric: Node: 3 dCoord:   0.000E+00   1.000E+00   0.000E+00
ElementMetric: Node: 4 dCoord:   0.000E+00   0.000E+00   1.000E+00
ElementMetric: Node: 5 dCoord:   5.000E-01   0.000E+00   0.000E+00
ElementMetric: Node: 6 dCoord:   5.000E-01   5.000E-01   0.000E+00
ElementMetric: Node: 7 dCoord:   0.000E+00   5.000E-01   0.000E+00
ElementMetric: Node: 8 dCoord:   0.000E+00   0.000E+00   5.000E-01
ElementMetric: Node: 9 dCoord:   5.000E-01   0.000E+00   5.000E-01
ElementMetric: Node: 10 dCoord:   0.000E+00   5.000E-01   5.000E-01
ElementMetric: Element dim larger than meshdim: 3 vs. 0
ERROR:: ElementMetric: Degenerate 3D element: -1
ElementMetric: Body Id: 0 DetG:   0.000E+00
ElementMetric: Node: 1 Coord:   0.000E+00   0.000E+00   0.000E+00
ElementMetric: Node: 2 Coord:   1.000E+00   0.000E+00   0.000E+00
ElementMetric: Node: 3 Coord:   0.000E+00   1.000E+00   0.000E+00
ElementMetric: Node: 4 Coord:   0.000E+00   0.000E+00   1.000E+00
ElementMetric: Node: 5 Coord:   5.000E-01   0.000E+00   0.000E+00
ElementMetric: Node: 6 Coord:   5.000E-01   5.000E-01   0.000E+00
ElementMetric: Node: 7 Coord:   0.000E+00   5.000E-01   0.000E+00
ElementMetric: Node: 8 Coord:   0.000E+00   0.000E+00   5.000E-01
ElementMetric: Node: 9 Coord:   5.000E-01   0.000E+00   5.000E-01
ElementMetric: Node: 10 Coord:   0.000E+00   5.000E-01   5.000E-01
ElementMetric: Node: 2 dCoord:   1.000E+00   0.000E+00   0.000E+00
ElementMetric: Node: 3 dCoord:   0.000E+00   1.000E+00   0.000E+00
ElementMetric: Node: 4 dCoord:   0.000E+00   0.000E+00   1.000E+00
ElementMetric: Node: 5 dCoord:   5.000E-01   0.000E+00   0.000E+00
ElementMetric: Node: 6 dCoord:   5.000E-01   5.000E-01   0.000E+00
ElementMetric: Node: 7 dCoord:   0.000E+00   5.000E-01   0.000E+00
ElementMetric: Node: 8 dCoord:   0.000E+00   0.000E+00   5.000E-01
ElementMetric: Node: 9 dCoord:   5.000E-01   0.000E+00   5.000E-01
ElementMetric: Node: 10 dCoord:   0.000E+00   5.000E-01   5.000E-01
ElementMetric: Element dim larger than meshdim: 3 vs. 0
ERROR:: ElementMetric: Degenerate 3D element: -1
ElementMetric: Body Id: 0 DetG:   0.000E+00
ElementMetric: Node: 1 Coord:   0.000E+00   0.000E+00   0.000E+00
ElementMetric: Node: 2 Coord:   1.000E+00   0.000E+00   0.000E+00
ElementMetric: Node: 3 Coord:   0.000E+00   1.000E+00   0.000E+00
ElementMetric: Node: 4 Coord:   0.000E+00   0.000E+00   1.000E+00
ElementMetric: Node: 5 Coord:   5.000E-01   0.000E+00   0.000E+00
ElementMetric: Node: 6 Coord:   5.000E-01   5.000E-01   0.000E+00
ElementMetric: Node: 7 Coord:   0.000E+00   5.000E-01   0.000E+00
ElementMetric: Node: 8 Coord:   0.000E+00   0.000E+00   5.000E-01
ElementMetric: Node: 9 Coord:   5.000E-01   0.000E+00   5.000E-01
ElementMetric: Node: 10 Coord:   0.000E+00   5.000E-01   5.000E-01
ElementMetric: Node: 2 dCoord:   1.000E+00   0.000E+00   0.000E+00
ElementMetric: Node: 3 dCoord:   0.000E+00   1.000E+00   0.000E+00
ElementMetric: Node: 4 dCoord:   0.000E+00   0.000E+00   1.000E+00
ElementMetric: Node: 5 dCoord:   5.000E-01   0.000E+00   0.000E+00
ElementMetric: Node: 6 dCoord:   5.000E-01   5.000E-01   0.000E+00
ElementMetric: Node: 7 dCoord:   0.000E+00   5.000E-01   0.000E+00
ElementMetric: Node: 8 dCoord:   0.000E+00   0.000E+00   5.000E-01
ElementMetric: Node: 9 dCoord:   5.000E-01   0.000E+00   5.000E-01
ElementMetric: Node: 10 dCoord:   0.000E+00   5.000E-01   5.000E-01
ElementMetric: Element dim larger than meshdim: 3 vs. 0
ERROR:: ElementMetric: Degenerate 3D element: -1
ElementMetric: Body Id: 0 DetG:   0.000E+00
ElementMetric: Node: 1 Coord:   0.000E+00   0.000E+00   0.000E+00
ElementMetric: Node: 2 Coord:   1.000E+00   0.000E+00   0.000E+00
ElementMetric: Node: 3 Coord:   0.000E+00   1.000E+00   0.000E+00
ElementMetric: Node: 4 Coord:   0.000E+00   0.000E+00   1.000E+00
ElementMetric: Node: 5 Coord:   5.000E-01   0.000E+00   0.000E+00
ElementMetric: Node: 6 Coord:   5.000E-01   5.000E-01   0.000E+00
ElementMetric: Node: 7 Coord:   0.000E+00   5.000E-01   0.000E+00
ElementMetric: Node: 8 Coord:   0.000E+00   0.000E+00   5.000E-01
ElementMetric: Node: 9 Coord:   5.000E-01   0.000E+00   5.000E-01
ElementMetric: Node: 10 Coord:   0.000E+00   5.000E-01   5.000E-01
ElementMetric: Node: 2 dCoord:   1.000E+00   0.000E+00   0.000E+00
ElementMetric: Node: 3 dCoord:   0.000E+00   1.000E+00   0.000E+00
ElementMetric: Node: 4 dCoord:   0.000E+00   0.000E+00   1.000E+00
ElementMetric: Node: 5 dCoord:   5.000E-01   0.000E+00   0.000E+00
ElementMetric: Node: 6 dCoord:   5.000E-01   5.000E-01   0.000E+00
ElementMetric: Node: 7 dCoord:   0.000E+00   5.000E-01   0.000E+00
ElementMetric: Node: 8 dCoord:   0.000E+00   0.000E+00   5.000E-01
ElementMetric: Node: 9 dCoord:   5.000E-01   0.000E+00   5.000E-01
ElementMetric: Node: 10 dCoord:   0.000E+00   5.000E-01   5.000E-01
ElementMetric: Element dim larger than meshdim: 3 vs. 0
ERROR:: ElementMetric: Degenerate 3D element: -1
ElementMetric: Body Id: 0 DetG:   0.000E+00
ElementMetric: Node: 1 Coord:   0.000E+00   0.000E+00   0.000E+00
ElementMetric: Node: 2 Coord:   1.000E+00   0.000E+00   0.000E+00
ElementMetric: Node: 3 Coord:   0.000E+00   1.000E+00   0.000E+00
ElementMetric: Node: 4 Coord:   0.000E+00   0.000E+00   1.000E+00
ElementMetric: Node: 5 Coord:   5.000E-01   0.000E+00   0.000E+00
ElementMetric: Node: 6 Coord:   5.000E-01   5.000E-01   0.000E+00
ElementMetric: Node: 7 Coord:   0.000E+00   5.000E-01   0.000E+00
ElementMetric: Node: 8 Coord:   0.000E+00   0.000E+00   5.000E-01
ElementMetric: Node: 9 Coord:   5.000E-01   0.000E+00   5.000E-01
ElementMetric: Node: 10 Coord:   0.000E+00   5.000E-01   5.000E-01
ElementMetric: Node: 2 dCoord:   1.000E+00   0.000E+00   0.000E+00
ElementMetric: Node: 3 dCoord:   0.000E+00   1.000E+00   0.000E+00
ElementMetric: Node: 4 dCoord:   0.000E+00   0.000E+00   1.000E+00
ElementMetric: Node: 5 dCoord:   5.000E-01   0.000E+00   0.000E+00
ElementMetric: Node: 6 dCoord:   5.000E-01   5.000E-01   0.000E+00
ElementMetric: Node: 7 dCoord:   0.000E+00   5.000E-01   0.000E+00
ElementMetric: Node: 8 dCoord:   0.000E+00   0.000E+00   5.000E-01
ElementMetric: Node: 9 dCoord:   5.000E-01   0.000E+00   5.000E-01
ElementMetric: Node: 10 dCoord:   0.000E+00   5.000E-01   5.000E-01
ElementMetric: Element dim larger than meshdim: 3 vs. 0
ERROR:: ElementMetric: Degenerate 3D element: -1
ElementMetric: Body Id: 0 DetG:   0.000E+00
ElementMetric: Node: 1 Coord:   0.000E+00   0.000E+00   0.000E+00
ElementMetric: Node: 2 Coord:   1.000E+00   0.000E+00   0.000E+00
ElementMetric: Node: 3 Coord:   0.000E+00   1.000E+00   0.000E+00
ElementMetric: Node: 4 Coord:   0.000E+00   0.000E+00   1.000E+00
ElementMetric: Node: 5 Coord:   5.000E-01   0.000E+00   0.000E+00
ElementMetric: Node: 6 Coord:   5.000E-01   5.000E-01   0.000E+00
ElementMetric: Node: 7 Coord:   0.000E+00   5.000E-01   0.000E+00
ElementMetric: Node: 8 Coord:   0.000E+00   0.000E+00   5.000E-01
ElementMetric: Node: 9 Coord:   5.000E-01   0.000E+00   5.000E-01
ElementMetric: Node: 10 Coord:   0.000E+00   5.000E-01   5.000E-01
ElementMetric: Node: 2 dCoord:   1.000E+00   0.000E+00   0.000E+00
ElementMetric: Node: 3 dCoord:   0.000E+00   1.000E+00   0.000E+00
ElementMetric: Node: 4 dCoord:   0.000E+00   0.000E+00   1.000E+00
ElementMetric: Node: 5 dCoord:   5.000E-01   0.000E+00   0.000E+00
ElementMetric: Node: 6 dCoord:   5.000E-01   5.000E-01   0.000E+00
ElementMetric: Node: 7 dCoord:   0.000E+00   5.000E-01   0.000E+00
ElementMetric: Node: 8 dCoord:   0.000E+00   0.000E+00   5.000E-01
ElementMetric: Node: 9 dCoord:   5.000E-01   0.000E+00   5.000E-01
ElementMetric: Node: 10 dCoord:   0.000E+00   5.000E-01   5.000E-01
ElementMetric: Element dim larger than meshdim: 3 vs. 0
ERROR:: ElementMetric: Degenerate 3D element: -1
ElementMetric: Body Id: 0 DetG:   0.000E+00
ElementMetric: Node: 1 Coord:   0.000E+00   0.000E+00   0.000E+00
ElementMetric: Node: 2 Coord:   1.000E+00   0.000E+00   0.000E+00
ElementMetric: Node: 3 Coord:   0.000E+00   1.000E+00   0.000E+00
ElementMetric: Node: 4 Coord:   0.000E+00   0.000E+00   1.000E+00
ElementMetric: Node: 5 Coord:   5.000E-01   0.000E+00   0.000E+00
ElementMetric: Node: 6 Coord:   5.000E-01   5.000E-01   0.000E+00
ElementMetric: Node: 7 Coord:   0.000E+00   5.000E-01   0.000E+00
ElementMetric: Node: 8 Coord:   0.000E+00   0.000E+00   5.000E-01
ElementMetric: Node: 9 Coord:   5.000E-01   0.000E+00   5.000E-01
ElementMetric: Node: 10 Coord:   0.000E+00   5.000E-01   5.000E-01
ElementMetric: Node: 2 dCoord:   1.000E+00   0.000E+00   0.000E+00
ElementMetric: Node: 3 dCoord:   0.000E+00   1.000E+00   0.000E+00
ElementMetric: Node: 4 dCoord:   0.000E+00   0.000E+00   1.000E+00
ElementMetric: Node: 5 dCoord:   5.000E-01   0.000E+00   0.000E+00
ElementMetric: Node: 6 dCoord:   5.000E-01   5.000E-01   0.000E+00
ElementMetric: Node: 7 dCoord:   0.000E+00   5.000E-01   0.000E+00
ElementMetric: Node: 8 dCoord:   0.000E+00   0.000E+00   5.000E-01
ElementMetric: Node: 9 dCoord:   5.000E-01   0.000E+00   5.000E-01
ElementMetric: Node: 10 dCoord:   0.000E+00   5.000E-01   5.000E-01
ElementMetric: Element dim larger than meshdim: 3 vs. 0
ERROR:: ElementMetric: Degenerate 3D element: -1
ElementMetric: Body Id: 0 DetG:   0.000E+00
ElementMetric: Node: 1 Coord:   0.000E+00   0.000E+00   0.000E+00
ElementMetric: Node: 2 Coord:   1.000E+00   0.000E+00   0.000E+00
ElementMetric: Node: 3 Coord:   0.000E+00   1.000E+00   0.000E+00
ElementMetric: Node: 4 Coord:   0.000E+00   0.000E+00   1.000E+00
ElementMetric: Node: 5 Coord:   5.000E-01   0.000E+00   0.000E+00
ElementMetric: Node: 6 Coord:   5.000E-01   5.000E-01   0.000E+00
ElementMetric: Node: 7 Coord:   0.000E+00   5.000E-01   0.000E+00
ElementMetric: Node: 8 Coord:   0.000E+00   0.000E+00   5.000E-01
ElementMetric: Node: 9 Coord:   5.000E-01   0.000E+00   5.000E-01
ElementMetric: Node: 10 Coord:   0.000E+00   5.000E-01   5.000E-01
ElementMetric: Node: 2 dCoord:   1.000E+00   0.000E+00   0.000E+00
ElementMetric: Node: 3 dCoord:   0.000E+00   1.000E+00   0.000E+00
ElementMetric: Node: 4 dCoord:   0.000E+00   0.000E+00   1.000E+00
ElementMetric: Node: 5 dCoord:   5.000E-01   0.000E+00   0.000E+00
ElementMetric: Node: 6 dCoord:   5.000E-01   5.000E-01   0.000E+00
ElementMetric: Node: 7 dCoord:   0.000E+00   5.000E-01   0.000E+00
ElementMetric: Node: 8 dCoord:   0.000E+00   0.000E+00   5.000E-01
ElementMetric: Node: 9 dCoord:   5.000E-01   0.000E+00   5.000E-01
ElementMetric: Node: 10 dCoord:   0.000E+00   5.000E-01   5.000E-01
ElementMetric: Element dim larger than meshdim: 3 vs. 0
ERROR:: ElementMetric: Degenerate 3D element: -1
ElementMetric: Body Id: 0 DetG:   0.000E+00
ElementMetric: Node: 1 Coord:   0.000E+00   0.000E+00   0.000E+00
ElementMetric: Node: 2 Coord:   1.000E+00   0.000E+00   0.000E+00
ElementMetric: Node: 3 Coord:   0.000E+00   1.000E+00   0.000E+00
ElementMetric: Node: 4 Coord:   0.000E+00   0.000E+00   1.000E+00
ElementMetric: Node: 5 Coord:   5.000E-01   0.000E+00   0.000E+00
ElementMetric: Node: 6 Coord:   5.000E-01   5.000E-01   0.000E+00
ElementMetric: Node: 7 Coord:   0.000E+00   5.000E-01   0.000E+00
ElementMetric: Node: 8 Coord:   0.000E+00   0.000E+00   5.000E-01
ElementMetric: Node: 9 Coord:   5.000E-01   0.000E+00   5.000E-01
ElementMetric: Node: 10 Coord:   0.000E+00   5.000E-01   5.000E-01
ElementMetric: Node: 2 dCoord:   1.000E+00   0.000E+00   0.000E+00
ElementMetric: Node: 3 dCoord:   0.000E+00   1.000E+00   0.000E+00
ElementMetric: Node: 4 dCoord:   0.000E+00   0.000E+00   1.000E+00
ElementMetric: Node: 5 dCoord:   5.000E-01   0.000E+00   0.000E+00
ElementMetric: Node: 6 dCoord:   5.000E-01   5.000E-01   0.000E+00
ElementMetric: Node: 7 dCoord:   0.000E+00   5.000E-01   0.000E+00
ElementMetric: Node: 8 dCoord:   0.000E+00   0.000E+00   5.000E-01
ElementMetric: Node: 9 dCoord:   5.000E-01   0.000E+00   5.000E-01
ElementMetric: Node: 10 dCoord:   0.000E+00   5.000E-01   5.000E-01
ElementMetric: Element dim larger than meshdim: 3 vs. 0
ERROR:: ElementMetric: Degenerate 3D element: -1
ElementMetric: Body Id: 0 DetG:   0.000E+00
ElementMetric: Node: 1 Coord:   0.000E+00   0.000E+00   0.000E+00
ElementMetric: Node: 2 Coord:   1.000E+00   0.000E+00   0.000E+00
ElementMetric: Node: 3 Coord:   0.000E+00   1.000E+00   0.000E+00
ElementMetric: Node: 4 Coord:   0.000E+00   0.000E+00   1.000E+00
ElementMetric: Node: 5 Coord:   5.000E-01   0.000E+00   0.000E+00
ElementMetric: Node: 6 Coord:   5.000E-01   5.000E-01   0.000E+00
ElementMetric: Node: 7 Coord:   0.000E+00   5.000E-01   0.000E+00
ElementMetric: Node: 8 Coord:   0.000E+00   0.000E+00   5.000E-01
ElementMetric: Node: 9 Coord:   5.000E-01   0.000E+00   5.000E-01
ElementMetric: Node: 10 Coord:   0.000E+00   5.000E-01   5.000E-01
ElementMetric: Node: 2 dCoord:   1.000E+00   0.000E+00   0.000E+00
ElementMetric: Node: 3 dCoord:   0.000E+00   1.000E+00   0.000E+00
ElementMetric: Node: 4 dCoord:   0.000E+00   0.000E+00   1.000E+00
ElementMetric: Node: 5 dCoord:   5.000E-01   0.000E+00   0.000E+00
ElementMetric: Node: 6 dCoord:   5.000E-01   5.000E-01   0.000E+00
ElementMetric: Node: 7 dCoord:   0.000E+00   5.000E-01   0.000E+00
ElementMetric: Node: 8 dCoord:   0.000E+00   0.000E+00   5.000E-01
ElementMetric: Node: 9 dCoord:   5.000E-01   0.000E+00   5.000E-01
ElementMetric: Node: 10 dCoord:   0.000E+00   5.000E-01   5.000E-01
ElementMetric: Element dim larger than meshdim: 3 vs. 0
ERROR:: ElementMetric: Degenerate 3D element: -1
ElementMetric: Body Id: 0 DetG:   0.000E+00
ElementMetric: Node: 1 Coord:   0.000E+00   0.000E+00   0.000E+00
ElementMetric: Node: 2 Coord:   1.000E+00   0.000E+00   0.000E+00
ElementMetric: Node: 3 Coord:   0.000E+00   1.000E+00   0.000E+00
ElementMetric: Node: 4 Coord:   0.000E+00   0.000E+00   1.000E+00
ElementMetric: Node: 5 Coord:   5.000E-01   0.000E+00   0.000E+00
ElementMetric: Node: 6 Coord:   5.000E-01   5.000E-01   0.000E+00
ElementMetric: Node: 7 Coord:   0.000E+00   5.000E-01   0.000E+00
ElementMetric: Node: 8 Coord:   0.000E+00   0.000E+00   5.000E-01
ElementMetric: Node: 9 Coord:   5.000E-01   0.000E+00   5.000E-01
ElementMetric: Node: 10 Coord:   0.000E+00   5.000E-01   5.000E-01
ElementMetric: Node: 2 dCoord:   1.000E+00   0.000E+00   0.000E+00
ElementMetric: Node: 3 dCoord:   0.000E+00   1.000E+00   0.000E+00
ElementMetric: Node: 4 dCoord:   0.000E+00   0.000E+00   1.000E+00
ElementMetric: Node: 5 dCoord:   5.000E-01   0.000E+00   0.000E+00
ElementMetric: Node: 6 dCoord:   5.000E-01   5.000E-01   0.000E+00
ElementMetric: Node: 7 dCoord:   0.000E+00   5.000E-01   0.000E+00
ElementMetric: Node: 8 dCoord:   0.000E+00   0.000E+00   5.000E-01
ElementMetric: Node: 9 dCoord:   5.000E-01   0.000E+00   5.000E-01
ElementMetric: Node: 10 dCoord:   0.000E+00   5.000E-01   5.000E-01
ElementMetric: Element dim larger than meshdim: 3 vs. 0
ERROR:: ElementMetric: Degenerate 3D element: -1
ElementMetric: Body Id: 0 DetG:   0.000E+00
ElementMetric: Node: 1 Coord:   0.000E+00   0.000E+00   0.000E+00
ElementMetric: Node: 2 Coord:   1.000E+00   0.000E+00   0.000E+00
ElementMetric: Node: 3 Coord:   0.000E+00   1.000E+00   0.000E+00
ElementMetric: Node: 4 Coord:   0.000E+00   0.000E+00   1.000E+00
ElementMetric: Node: 5 Coord:   5.000E-01   0.000E+00   0.000E+00
ElementMetric: Node: 6 Coord:   5.000E-01   5.000E-01   0.000E+00
ElementMetric: Node: 7 Coord:   0.000E+00   5.000E-01   0.000E+00
ElementMetric: Node: 8 Coord:   0.000E+00   0.000E+00   5.000E-01
ElementMetric: Node: 9 Coord:   5.000E-01   0.000E+00   5.000E-01
ElementMetric: Node: 10 Coord:   0.000E+00   5.000E-01   5.000E-01
ElementMetric: Node: 2 dCoord:   1.000E+00   0.000E+00   0.000E+00
ElementMetric: Node: 3 dCoord:   0.000E+00   1.000E+00   0.000E+00
ElementMetric: Node: 4 dCoord:   0.000E+00   0.000E+00   1.000E+00
ElementMetric: Node: 5 dCoord:   5.000E-01   0.000E+00   0.000E+00
ElementMetric: Node: 6 dCoord:   5.000E-01   5.000E-01   0.000E+00
ElementMetric: Node: 7 dCoord:   0.000E+00   5.000E-01   0.000E+00
ElementMetric: Node: 8 dCoord:   0.000E+00   0.000E+00   5.000E-01
ElementMetric: Node: 9 dCoord:   5.000E-01   0.000E+00   5.000E-01
ElementMetric: Node: 10 dCoord:   0.000E+00   5.000E-01   5.000E-01
ElementMetric: Element dim larger than meshdim: 3 vs. 0
ERROR:: ElementMetric: Degenerate 3D element: -1
ElementMetric: Body Id: 0 DetG:   0.000E+00
ElementMetric: Node: 1 Coord:   0.000E+00   0.000E+00   0.000E+00
ElementMetric: Node: 2 Coord:   1.000E+00   0.000E+00   0.000E+00
ElementMetric: Node: 3 Coord:   0.000E+00   1.000E+00   0.000E+00
ElementMetric: Node: 4 Coord:   0.000E+00   0.000E+00   1.000E+00
ElementMetric: Node: 5 Coord:   5.000E-01   0.000E+00   0.000E+00
ElementMetric: Node: 6 Coord:   5.000E-01   5.000E-01   0.000E+00
ElementMetric: Node: 7 Coord:   0.000E+00   5.000E-01   0.000E+00
ElementMetric: Node: 8 Coord:   0.000E+00   0.000E+00   5.000E-01
ElementMetric: Node: 9 Coord:   5.000E-01   0.000E+00   5.000E-01
ElementMetric: Node: 10 Coord:   0.000E+00   5.000E-01   5.000E-01
ElementMetric: Node: 2 dCoord:   1.000E+00   0.000E+00   0.000E+00
ElementMetric: Node: 3 dCoord:   0.000E+00   1.000E+00   0.000E+00
ElementMetric: Node: 4 dCoord:   0.000E+00   0.000E+00   1.000E+00
ElementMetric: Node: 5 dCoord:   5.000E-01   0.000E+00   0.000E+00
ElementMetric: Node: 6 dCoord:   5.000E-01   5.000E-01   0.000E+00
ElementMetric: Node: 7 dCoord:   0.000E+00   5.000E-01   0.000E+00
ElementMetric: Node: 8 dCoord:   0.000E+00   0.000E+00   5.000E-01
ElementMetric: Node: 9 dCoord:   5.000E-01   0.000E+00   5.000E-01
ElementMetric: Node: 10 dCoord:   0.000E+00   5.000E-01   5.000E-01
ElementMetric: Element dim larger than meshdim: 3 vs. 0
ERROR:: ElementMetric: Degenerate 3D element: -1
ElementMetric: Body Id: 0 DetG:   0.000E+00
ElementMetric: Node: 1 Coord:   0.000E+00   0.000E+00   0.000E+00
ElementMetric: Node: 2 Coord:   1.000E+00   0.000E+00   0.000E+00
ElementMetric: Node: 3 Coord:   0.000E+00   1.000E+00   0.000E+00
ElementMetric: Node: 4 Coord:   0.000E+00   0.000E+00   1.000E+00
ElementMetric: Node: 5 Coord:   5.000E-01   0.000E+00   0.000E+00
ElementMetric: Node: 6 Coord:   5.000E-01   5.000E-01   0.000E+00
ElementMetric: Node: 7 Coord:   0.000E+00   5.000E-01   0.000E+00
ElementMetric: Node: 8 Coord:   0.000E+00   0.000E+00   5.000E-01
ElementMetric: Node: 9 Coord:   5.000E-01   0.000E+00   5.000E-01
ElementMetric: Node: 10 Coord:   0.000E+00   5.000E-01   5.000E-01
ElementMetric: Node: 2 dCoord:   1.000E+00   0.000E+00   0.000E+00
ElementMetric: Node: 3 dCoord:   0.000E+00   1.000E+00   0.000E+00
ElementMetric: Node: 4 dCoord:   0.000E+00   0.000E+00   1.000E+00
ElementMetric: Node: 5 dCoord:   5.000E-01   0.000E+00   0.000E+00
ElementMetric: Node: 6 dCoord:   5.000E-01   5.000E-01   0.000E+00
ElementMetric: Node: 7 dCoord:   0.000E+00   5.000E-01   0.000E+00
ElementMetric: Node: 8 dCoord:   0.000E+00   0.000E+00   5.000E-01
ElementMetric: Node: 9 dCoord:   5.000E-01   0.000E+00   5.000E-01
ElementMetric: Node: 10 dCoord:   0.000E+00   5.000E-01   5.000E-01
ElementMetric: Element dim larger than meshdim: 3 vs. 0
ERROR:: ElementMetric: Degenerate 3D element: -1
ElementMetric: Body Id: 0 DetG:   0.000E+00
ElementMetric: Node: 1 Coord:   0.000E+00   0.000E+00   0.000E+00
ElementMetric: Node: 2 Coord:   1.000E+00   0.000E+00   0.000E+00
ElementMetric: Node: 3 Coord:   0.000E+00   1.000E+00   0.000E+00
ElementMetric: Node: 4 Coord:   0.000E+00   0.000E+00   1.000E+00
ElementMetric: Node: 5 Coord:   5.000E-01   0.000E+00   0.000E+00
ElementMetric: Node: 6 Coord:   5.000E-01   5.000E-01   0.000E+00
ElementMetric: Node: 7 Coord:   0.000E+00   5.000E-01   0.000E+00
ElementMetric: Node: 8 Coord:   0.000E+00   0.000E+00   5.000E-01
ElementMetric: Node: 9 Coord:   5.000E-01   0.000E+00   5.000E-01
ElementMetric: Node: 10 Coord:   0.000E+00   5.000E-01   5.000E-01
ElementMetric: Node: 2 dCoord:   1.000E+00   0.000E+00   0.000E+00
ElementMetric: Node: 3 dCoord:   0.000E+00   1.000E+00   0.000E+00
ElementMetric: Node: 4 dCoord:   0.000E+00   0.000E+00   1.000E+00
ElementMetric: Node: 5 dCoord:   5.000E-01   0.000E+00   0.000E+00
ElementMetric: Node: 6 dCoord:   5.000E-01   5.000E-01   0.000E+00
ElementMetric: Node: 7 dCoord:   0.000E+00   5.000E-01   0.000E+00
ElementMetric: Node: 8 dCoord:   0.000E+00   0.000E+00   5.000E-01
ElementMetric: Node: 9 dCoord:   5.000E-01   0.000E+00   5.000E-01
ElementMetric: Node: 10 dCoord:   0.000E+00   5.000E-01   5.000E-01
ElementMetric: Element dim larger than meshdim: 3 vs. 0
ERROR:: ElementMetric: Degenerate 3D element: -1
ElementMetric: Body Id: 0 DetG:   0.000E+00
ElementMetric: Node: 1 Coord:   0.000E+00   0.000E+00   0.000E+00
ElementMetric: Node: 2 Coord:   1.000E+00   0.000E+00   0.000E+00
ElementMetric: Node: 3 Coord:   0.000E+00   1.000E+00   0.000E+00
ElementMetric: Node: 4 Coord:   0.000E+00   0.000E+00   1.000E+00
ElementMetric: Node: 5 Coord:   5.000E-01   0.000E+00   0.000E+00
ElementMetric: Node: 6 Coord:   5.000E-01   5.000E-01   0.000E+00
ElementMetric: Node: 7 Coord:   0.000E+00   5.000E-01   0.000E+00
ElementMetric: Node: 8 Coord:   0.000E+00   0.000E+00   5.000E-01
ElementMetric: Node: 9 Coord:   5.000E-01   0.000E+00   5.000E-01
ElementMetric: Node: 10 Coord:   0.000E+00   5.000E-01   5.000E-01
ElementMetric: Node: 2 dCoord:   1.000E+00   0.000E+00   0.000E+00
ElementMetric: Node: 3 dCoord:   0.000E+00   1.000E+00   0.000E+00
ElementMetric: Node: 4 dCoord:   0.000E+00   0.000E+00   1.000E+00
ElementMetric: Node: 5 dCoord:   5.000E-01   0.000E+00   0.000E+00
ElementMetric: Node: 6 dCoord:   5.000E-01   5.000E-01   0.000E+00
ElementMetric: Node: 7 dCoord:   0.000E+00   5.000E-01   0.000E+00
ElementMetric: Node: 8 dCoord:   0.000E+00   0.000E+00   5.000E-01
ElementMetric: Node: 9 dCoord:   5.000E-01   0.000E+00   5.000E-01
ElementMetric: Node: 10 dCoord:   0.000E+00   5.000E-01   5.000E-01
ElementMetric: Element dim larger than meshdim: 3 vs. 0
ERROR:: ElementMetric: Degenerate 3D element: -1
ElementMetric: Body Id: 0 DetG:   0.000E+00
ElementMetric: Node: 1 Coord:   0.000E+00   0.000E+00   0.000E+00
ElementMetric: Node: 2 Coord:   1.000E+00   0.000E+00   0.000E+00
ElementMetric: Node: 3 Coord:   0.000E+00   1.000E+00   0.000E+00
ElementMetric: Node: 4 Coord:   0.000E+00   0.000E+00   1.000E+00
ElementMetric: Node: 5 Coord:   5.000E-01   0.000E+00   0.000E+00
ElementMetric: Node: 6 Coord:   5.000E-01   5.000E-01   0.000E+00
ElementMetric: Node: 7 Coord:   0.000E+00   5.000E-01   0.000E+00
ElementMetric: Node: 8 Coord:   0.000E+00   0.000E+00   5.000E-01
ElementMetric: Node: 9 Coord:   5.000E-01   0.000E+00   5.000E-01
ElementMetric: Node: 10 Coord:   0.000E+00   5.000E-01   5.000E-01
ElementMetric: Node: 2 dCoord:   1.000E+00   0.000E+00   0.000E+00
ElementMetric: Node: 3 dCoord:   0.000E+00   1.000E+00   0.000E+00
ElementMetric: Node: 4 dCoord:   0.000E+00   0.000E+00   1.000E+00
ElementMetric: Node: 5 dCoord:   5.000E-01   0.000E+00   0.000E+00
ElementMetric: Node: 6 dCoord:   5.000E-01   5.000E-01   0.000E+00
ElementMetric: Node: 7 dCoord:   0.000E+00   5.000E-01   0.000E+00
ElementMetric: Node: 8 dCoord:   0.000E+00   0.000E+00   5.000E-01
ElementMetric: Node: 9 dCoord:   5.000E-01   0.000E+00   5.000E-01
ElementMetric: Node: 10 dCoord:   0.000E+00   5.000E-01   5.000E-01
ElementMetric: Element dim larger than meshdim: 3 vs. 0
ERROR:: ElementMetric: Degenerate 3D element: -1
ElementMetric: Body Id: 0 DetG:   0.000E+00
ElementMetric: Node: 1 Coord:   0.000E+00   0.000E+00   0.000E+00
ElementMetric: Node: 2 Coord:   1.000E+00   0.000E+00   0.000E+00
ElementMetric: Node: 3 Coord:   0.000E+00   1.000E+00   0.000E+00
ElementMetric: Node: 4 Coord:   0.000E+00   0.000E+00   1.000E+00
ElementMetric: Node: 5 Coord:   5.000E-01   0.000E+00   0.000E+00
ElementMetric: Node: 6 Coord:   5.000E-01   5.000E-01   0.000E+00
ElementMetric: Node: 7 Coord:   0.000E+00   5.000E-01   0.000E+00
ElementMetric: Node: 8 Coord:   0.000E+00   0.000E+00   5.000E-01
ElementMetric: Node: 9 Coord:   5.000E-01   0.000E+00   5.000E-01
ElementMetric: Node: 10 Coord:   0.000E+00   5.000E-01   5.000E-01
ElementMetric: Node: 2 dCoord:   1.000E+00   0.000E+00   0.000E+00
ElementMetric: Node: 3 dCoord:   0.000E+00   1.000E+00   0.000E+00
ElementMetric: Node: 4 dCoord:   0.000E+00   0.000E+00   1.000E+00
ElementMetric: Node: 5 dCoord:   5.000E-01   0.000E+00   0.000E+00
ElementMetric: Node: 6 dCoord:   5.000E-01   5.000E-01   0.000E+00
ElementMetric: Node: 7 dCoord:   0.000E+00   5.000E-01   0.000E+00
ElementMetric: Node: 8 dCoord:   0.000E+00   0.000E+00   5.000E-01
ElementMetric: Node: 9 dCoord:   5.000E-01   0.000E+00   5.000E-01
ElementMetric: Node: 10 dCoord:   0.000E+00   5.000E-01   5.000E-01
ElementMetric: Element dim larger than meshdim: 3 vs. 0
ERROR:: ElementMetric: Degenerate 3D element: -1
ElementMetric: Body Id: 0 DetG:   0.000E+00
ElementMetric: Node: 1 Coord:   0.000E+00   0.000E+00   0.000E+00
ElementMetric: Node: 2 Coord:   1.000E+00   0.000E+00   0.000E+00
ElementMetric: Node: 3 Coord:   0.000E+00   1.000E+00   0.000E+00
ElementMetric: Node: 4 Coord:   0.000E+00   0.000E+00   1.000E+00
ElementMetric: Node: 5 Coord:   5.000E-01   0.000E+00   0.000E+00
ElementMetric: Node: 6 Coord:   5.000E-01   5.000E-01   0.000E+00
ElementMetric: Node: 7 Coord:   0.000E+00   5.000E-01   0.000E+00
ElementMetric: Node: 8 Coord:   0.000E+00   0.000E+00   5.000E-01
ElementMetric: Node: 9 Coord:   5.000E-01   0.000E+00   5.000E-01
ElementMetric: Node: 10 Coord:   0.000E+00   5.000E-01   5.000E-01
ElementMetric: Node: 2 dCoord:   1.000E+00   0.000E+00   0.000E+00
ElementMetric: Node: 3 dCoord:   0.000E+00   1.000E+00   0.000E+00
ElementMetric: Node: 4 dCoord:   0.000E+00   0.000E+00   1.000E+00
ElementMetric: Node: 5 dCoord:   5.000E-01   0.000E+00   0.000E+00
ElementMetric: Node: 6 dCoord:   5.000E-01   5.000E-01   0.000E+00
ElementMetric: Node: 7 dCoord:   0.000E+00   5.000E-01   0.000E+00
ElementMetric: Node: 8 dCoord:   0.000E+00   0.000E+00   5.000E-01
ElementMetric: Node: 9 dCoord:   5.000E-01   0.000E+00   5.000E-01
ElementMetric: Node: 10 dCoord:   0.000E+00   5.000E-01   5.000E-01
ElementMetric: Element dim larger than meshdim: 3 vs. 0
ERROR:: ElementMetric: Degenerate 3D element: -1
ElementMetric: Body Id: 0 DetG:   0.000E+00
ElementMetric: Node: 1 Coord:   0.000E+00   0.000E+00   0.000E+00
ElementMetric: Node: 2 Coord:   1.000E+00   0.000E+00   0.000E+00
ElementMetric: Node: 3 Coord:   0.000E+00   1.000E+00   0.000E+00
ElementMetric: Node: 4 Coord:   0.000E+00   0.000E+00   1.000E+00
ElementMetric: Node: 5 Coord:   5.000E-01   0.000E+00   0.000E+00
ElementMetric: Node: 6 Coord:   5.000E-01   5.000E-01   0.000E+00
ElementMetric: Node: 7 Coord:   0.000E+00   5.000E-01   0.000E+00
ElementMetric: Node: 8 Coord:   0.000E+00   0.000E+00   5.000E-01
ElementMetric: Node: 9 Coord:   5.000E-01   0.000E+00   5.000E-01
ElementMetric: Node: 10 Coord:   0.000E+00   5.000E-01   5.000E-01
ElementMetric: Node: 2 dCoord:   1.000E+00   0.000E+00   0.000E+00
ElementMetric: Node: 3 dCoord:   0.000E+00   1.000E+00   0.000E+00
ElementMetric: Node: 4 dCoord:   0.000E+00   0.000E+00   1.000E+00
ElementMetric: Node: 5 dCoord:   5.000E-01   0.000E+00   0.000E+00
ElementMetric: Node: 6 dCoord:   5.000E-01   5.000E-01   0.000E+00
ElementMetric: Node: 7 dCoord:   0.000E+00   5.000E-01   0.000E+00
ElementMetric: Node: 8 dCoord:   0.000E+00   0.000E+00   5.000E-01
ElementMetric: Node: 9 dCoord:   5.000E-01   0.000E+00   5.000E-01
ElementMetric: Node: 10 dCoord:   0.000E+00   5.000E-01   5.000E-01
ElementMetric: Element dim larger than meshdim: 3 vs. 0
ERROR:: ElementMetric: Degenerate 3D element: -1
ElementMetric: Body Id: 0 DetG:   0.000E+00
ElementMetric: Node: 1 Coord:   0.000E+00   0.000E+00   0.000E+00
ElementMetric: Node: 2 Coord:   1.000E+00   0.000E+00   0.000E+00
ElementMetric: Node: 3 Coord:   0.000E+00   1.000E+00   0.000E+00
ElementMetric: Node: 4 Coord:   0.000E+00   0.000E+00   1.000E+00
ElementMetric: Node: 5 Coord:   5.000E-01   0.000E+00   0.000E+00
ElementMetric: Node: 6 Coord:   5.000E-01   5.000E-01   0.000E+00
ElementMetric: Node: 7 Coord:   0.000E+00   5.000E-01   0.000E+00
ElementMetric: Node: 8 Coord:   0.000E+00   0.000E+00   5.000E-01
ElementMetric: Node: 9 Coord:   5.000E-01   0.000E+00   5.000E-01
ElementMetric: Node: 10 Coord:   0.000E+00   5.000E-01   5.000E-01
ElementMetric: Node: 2 dCoord:   1.000E+00   0.000E+00   0.000E+00
ElementMetric: Node: 3 dCoord:   0.000E+00   1.000E+00   0.000E+00
ElementMetric: Node: 4 dCoord:   0.000E+00   0.000E+00   1.000E+00
ElementMetric: Node: 5 dCoord:   5.000E-01   0.000E+00   0.000E+00
ElementMetric: Node: 6 dCoord:   5.000E-01   5.000E-01   0.000E+00
ElementMetric: Node: 7 dCoord:   0.000E+00   5.000E-01   0.000E+00
ElementMetric: Node: 8 dCoord:   0.000E+00   0.000E+00   5.000E-01
ElementMetric: Node: 9 dCoord:   5.000E-01   0.000E+00   5.000E-01
ElementMetric: Node: 10 dCoord:   0.000E+00   5.000E-01   5.000E-01
ElementMetric: Element dim larger than meshdim: 3 vs. 0
ERROR:: ElementMetric: Degenerate 3D element: -1
ElementMetric: Body Id: 0 DetG:   0.000E+00
ElementMetric: Node: 1 Coord:   0.000E+00   0.000E+00   0.000E+00
ElementMetric: Node: 2 Coord:   1.000E+00   0.000E+00   0.000E+00
ElementMetric: Node: 3 Coord:   0.000E+00   1.000E+00   0.000E+00
ElementMetric: Node: 4 Coord:   0.000E+00   0.000E+00   1.000E+00
ElementMetric: Node: 5 Coord:   5.000E-01   0.000E+00   0.000E+00
ElementMetric: Node: 6 Coord:   5.000E-01   5.000E-01   0.000E+00
ElementMetric: Node: 7 Coord:   0.000E+00   5.000E-01   0.000E+00
ElementMetric: Node: 8 Coord:   0.000E+00   0.000E+00   5.000E-01
ElementMetric: Node: 9 Coord:   5.000E-01   0.000E+00   5.000E-01
ElementMetric: Node: 10 Coord:   0.000E+00   5.000E-01   5.000E-01
ElementMetric: Node: 2 dCoord:   1.000E+00   0.000E+00   0.000E+00
ElementMetric: Node: 3 dCoord:   0.000E+00   1.000E+00   0.000E+00
ElementMetric: Node: 4 dCoord:   0.000E+00   0.000E+00   1.000E+00
ElementMetric: Node: 5 dCoord:   5.000E-01   0.000E+00   0.000E+00
ElementMetric: Node: 6 dCoord:   5.000E-01   5.000E-01   0.000E+00
ElementMetric: Node: 7 dCoord:   0.000E+00   5.000E-01   0.000E+00
ElementMetric: Node: 8 dCoord:   0.000E+00   0.000E+00   5.000E-01
ElementMetric: Node: 9 dCoord:   5.000E-01   0.000E+00   5.000E-01
ElementMetric: Node: 10 dCoord:   0.000E+00   5.000E-01   5.000E-01
ElementMetric: Element dim larger than meshdim: 3 vs. 0
ERROR:: ElementMetric: Degenerate 3D element: -1
ElementMetric: Body Id: 0 DetG:   0.000E+00
ElementMetric: Node: 1 Coord:   0.000E+00   0.000E+00   0.000E+00
ElementMetric: Node: 2 Coord:   1.000E+00   0.000E+00   0.000E+00
ElementMetric: Node: 3 Coord:   0.000E+00   1.000E+00   0.000E+00
ElementMetric: Node: 4 Coord:   0.000E+00   0.000E+00   1.000E+00
ElementMetric: Node: 5 Coord:   5.000E-01   0.000E+00   0.000E+00
ElementMetric: Node: 6 Coord:   5.000E-01   5.000E-01   0.000E+00
ElementMetric: Node: 7 Coord:   0.000E+00   5.000E-01   0.000E+00
ElementMetric: Node: 8 Coord:   0.000E+00   0.000E+00   5.000E-01
ElementMetric: Node: 9 Coord:   5.000E-01   0.000E+00   5.000E-01
ElementMetric: Node: 10 Coord:   0.000E+00   5.000E-01   5.000E-01
ElementMetric: Node: 2 dCoord:   1.000E+00   0.000E+00   0.000E+00
ElementMetric: Node: 3 dCoord:   0.000E+00   1.000E+00   0.000E+00
ElementMetric: Node: 4 dCoord:   0.000E+00   0.000E+00   1.000E+00
ElementMetric: Node: 5 dCoord:   5.000E-01   0.000E+00   0.000E+00
ElementMetric: Node: 6 dCoord:   5.000E-01   5.000E-01   0.000E+00
ElementMetric: Node: 7 dCoord:   0.000E+00   5.000E-01   0.000E+00
ElementMetric: Node: 8 dCoord:   0.000E+00   0.000E+00   5.000E-01
ElementMetric: Node: 9 dCoord:   5.000E-01   0.000E+00   5.000E-01
ElementMetric: Node: 10 dCoord:   0.000E+00   5.000E-01   5.000E-01
ElementMetric: Element dim larger than meshdim: 3 vs. 0
ERROR:: ElementMetric: Degenerate 2D element: -1
ElementMetric: Body Id: 0 DetG:   0.000E+00
ElementMetric: Node: 1 Coord:   0.000E+00   0.000E+00   0.000E+00
ElementMetric: Node: 2 Coord:   1.000E+00   0.000E+00   0.000E+00
ElementMetric: Node: 3 Coord:   0.000E+00   1.000E+00   0.000E+00
ElementMetric: Node: 4 Coord:   5.000E-01   0.000E+00   0.000E+00
ElementMetric: Node: 5 Coord:   5.000E-01   5.000E-01   0.000E+00
ElementMetric: Node: 6 Coord:   0.000E+00   5.000E-01   0.000E+00
ElementMetric: Node: 2 dCoord:   1.000E+00   0.000E+00   0.000E+00
ElementMetric: Node: 3 dCoord:   0.000E+00   1.000E+00   0.000E+00
ElementMetric: Node: 4 dCoord:   5.000E-01   0.000E+00   0.000E+00
ElementMetric: Node: 5 dCoord:   5.000E-01   5.000E-01   0.000E+00
ElementMetric: Node: 6 dCoord:   0.000E+00   5.000E-01   0.000E+00
ElementMetric: Element dim larger than meshdim: 2 vs. 0
ERROR:: ElementMetric: Degenerate 2D element: -1
ElementMetric: Body Id: 0 DetG:   0.000E+00
ElementMetric: Node: 1 Coord:   0.000E+00   0.000E+00   0.000E+00
ElementMetric: Node: 2 Coord:   1.000E+00   0.000E+00   0.000E+00
ElementMetric: Node: 3 Coord:   0.000E+00   1.000E+00   0.000E+00
ElementMetric: Node: 4 Coord:   5.000E-01   0.000E+00   0.000E+00
ElementMetric: Node: 5 Coord:   5.000E-01   5.000E-01   0.000E+00
ElementMetric: Node: 6 Coord:   0.000E+00   5.000E-01   0.000E+00
ElementMetric: Node: 2 dCoord:   1.000E+00   0.000E+00   0.000E+00
ElementMetric: Node: 3 dCoord:   0.000E+00   1.000E+00   0.000E+00
ElementMetric: Node: 4 dCoord:   5.000E-01   0.000E+00   0.000E+00
ElementMetric: Node: 5 dCoord:   5.000E-01   5.000E-01   0.000E+00
ElementMetric: Node: 6 dCoord:   0.000E+00   5.000E-01   0.000E+00
ElementMetric: Element dim larger than meshdim: 2 vs. 0
ERROR:: ElementMetric: Degenerate 2D element: -1
ElementMetric: Body Id: 0 DetG:   0.000E+00
ElementMetric: Node: 1 Coord:   0.000E+00   0.000E+00   0.000E+00
ElementMetric: Node: 2 Coord:   1.000E+00   0.000E+00   0.000E+00
ElementMetric: Node: 3 Coord:   0.000E+00   1.000E+00   0.000E+00
ElementMetric: Node: 4 Coord:   5.000E-01   0.000E+00   0.000E+00
ElementMetric: Node: 5 Coord:   5.000E-01   5.000E-01   0.000E+00
ElementMetric: Node: 6 Coord:   0.000E+00   5.000E-01   0.000E+00
ElementMetric: Node: 2 dCoord:   1.000E+00   0.000E+00   0.000E+00
ElementMetric: Node: 3 dCoord:   0.000E+00   1.000E+00   0.000E+00
ElementMetric: Node: 4 dCoord:   5.000E-01   0.000E+00   0.000E+00
ElementMetric: Node: 5 dCoord:   5.000E-01   5.000E-01   0.000E+00
ElementMetric: Node: 6 dCoord:   0.000E+00   5.000E-01   0.000E+00
ElementMetric: Element dim larger than meshdim: 2 vs. 0
ERROR:: ElementMetric: Degenerate 2D element: -1
ElementMetric: Body Id: 0 DetG:   0.000E+00
ElementMetric: Node: 1 Coord:   0.000E+00   0.000E+00   0.000E+00
ElementMetric: Node: 2 Coord:   1.000E+00   0.000E+00   0.000E+00
ElementMetric: Node: 3 Coord:   0.000E+00   1.000E+00   0.000E+00
ElementMetric: Node: 4 Coord:   5.000E-01   0.000E+00   0.000E+00
ElementMetric: Node: 5 Coord:   5.000E-01   5.000E-01   0.000E+00
ElementMetric: Node: 6 Coord:   0.000E+00   5.000E-01   0.000E+00
ElementMetric: Node: 2 dCoord:   1.000E+00   0.000E+00   0.000E+00
ElementMetric: Node: 3 dCoord:   0.000E+00   1.000E+00   0.000E+00
ElementMetric: Node: 4 dCoord:   5.000E-01   0.000E+00   0.000E+00
ElementMetric: Node: 5 dCoord:   5.000E-01   5.000E-01   0.000E+00
ElementMetric: Node: 6 dCoord:   0.000E+00   5.000E-01   0.000E+00
ElementMetric: Element dim larger than meshdim: 2 vs. 0
ERROR:: ElementMetric: Degenerate 2D element: -1
ElementMetric: Body Id: 0 DetG:   0.000E+00
ElementMetric: Node: 1 Coord:   0.000E+00   0.000E+00   0.000E+00
ElementMetric: Node: 2 Coord:   1.000E+00   0.000E+00   0.000E+00
ElementMetric: Node: 3 Coord:   0.000E+00   1.000E+00   0.000E+00
ElementMetric: Node: 4 Coord:   5.000E-01   0.000E+00   0.000E+00
ElementMetric: Node: 5 Coord:   5.000E-01   5.000E-01   0.000E+00
ElementMetric: Node: 6 Coord:   0.000E+00   5.000E-01   0.000E+00
ElementMetric: Node: 2 dCoord:   1.000E+00   0.000E+00   0.000E+00
ElementMetric: Node: 3 dCoord:   0.000E+00   1.000E+00   0.000E+00
ElementMetric: Node: 4 dCoord:   5.000E-01   0.000E+00   0.000E+00
ElementMetric: Node: 5 dCoord:   5.000E-01   5.000E-01   0.000E+00
ElementMetric: Node: 6 dCoord:   0.000E+00   5.000E-01   0.000E+00
ElementMetric: Element dim larger than meshdim: 2 vs. 0
ERROR:: ElementMetric: Degenerate 2D element: -1
ElementMetric: Body Id: 0 DetG:   0.000E+00
ElementMetric: Node: 1 Coord:   0.000E+00   0.000E+00   0.000E+00
ElementMetric: Node: 2 Coord:   1.000E+00   0.000E+00   0.000E+00
ElementMetric: Node: 3 Coord:   0.000E+00   1.000E+00   0.000E+00
ElementMetric: Node: 4 Coord:   5.000E-01   0.000E+00   0.000E+00
ElementMetric: Node: 5 Coord:   5.000E-01   5.000E-01   0.000E+00
ElementMetric: Node: 6 Coord:   0.000E+00   5.000E-01   0.000E+00
ElementMetric: Node: 2 dCoord:   1.000E+00   0.000E+00   0.000E+00
ElementMetric: Node: 3 dCoord:   0.000E+00   1.000E+00   0.000E+00
ElementMetric: Node: 4 dCoord:   5.000E-01   0.000E+00   0.000E+00
ElementMetric: Node: 5 dCoord:   5.000E-01   5.000E-01   0.000E+00
ElementMetric: Node: 6 dCoord:   0.000E+00   5.000E-01   0.000E+00
ElementMetric: Element dim larger than meshdim: 2 vs. 0
ERROR:: ElementMetric: Degenerate 2D element: -1
ElementMetric: Body Id: 0 DetG:   0.000E+00
ElementMetric: Node: 1 Coord:   0.000E+00   0.000E+00   0.000E+00
ElementMetric: Node: 2 Coord:   1.000E+00   0.000E+00   0.000E+00
ElementMetric: Node: 3 Coord:   0.000E+00   1.000E+00   0.000E+00
ElementMetric: Node: 4 Coord:   5.000E-01   0.000E+00   0.000E+00
ElementMetric: Node: 5 Coord:   5.000E-01   5.000E-01   0.000E+00
ElementMetric: Node: 6 Coord:   0.000E+00   5.000E-01   0.000E+00
ElementMetric: Node: 2 dCoord:   1.000E+00   0.000E+00   0.000E+00
ElementMetric: Node: 3 dCoord:   0.000E+00   1.000E+00   0.000E+00
ElementMetric: Node: 4 dCoord:   5.000E-01   0.000E+00   0.000E+00
ElementMetric: Node: 5 dCoord:   5.000E-01   5.000E-01   0.000E+00
ElementMetric: Node: 6 dCoord:   0.000E+00   5.000E-01   0.000E+00
ElementMetric: Element dim larger than meshdim: 2 vs. 0
ERROR:: ElementMetric: Degenerate 2D element: -1
ElementMetric: Body Id: 0 DetG:   0.000E+00
ElementMetric: Node: 1 Coord:   0.000E+00   0.000E+00   0.000E+00
ElementMetric: Node: 2 Coord:   1.000E+00   0.000E+00   0.000E+00
ElementMetric: Node: 3 Coord:   0.000E+00   1.000E+00   0.000E+00
ElementMetric: Node: 4 Coord:   5.000E-01   0.000E+00   0.000E+00
ElementMetric: Node: 5 Coord:   5.000E-01   5.000E-01   0.000E+00
ElementMetric: Node: 6 Coord:   0.000E+00   5.000E-01   0.000E+00
ElementMetric: Node: 2 dCoord:   1.000E+00   0.000E+00   0.000E+00
ElementMetric: Node: 3 dCoord:   0.000E+00   1.000E+00   0.000E+00
ElementMetric: Node: 4 dCoord:   5.000E-01   0.000E+00   0.000E+00
ElementMetric: Node: 5 dCoord:   5.000E-01   5.000E-01   0.000E+00
ElementMetric: Node: 6 dCoord:   0.000E+00   5.000E-01   0.000E+00
ElementMetric: Element dim larger than meshdim: 2 vs. 0
ERROR:: ElementMetric: Degenerate 2D element: -1
ElementMetric: Body Id: 0 DetG:   0.000E+00
ElementMetric: Node: 1 Coord:   0.000E+00   0.000E+00   0.000E+00
ElementMetric: Node: 2 Coord:   1.000E+00   0.000E+00   0.000E+00
ElementMetric: Node: 3 Coord:   0.000E+00   1.000E+00   0.000E+00
ElementMetric: Node: 4 Coord:   5.000E-01   0.000E+00   0.000E+00
ElementMetric: Node: 5 Coord:   5.000E-01   5.000E-01   0.000E+00
ElementMetric: Node: 6 Coord:   0.000E+00   5.000E-01   0.000E+00
ElementMetric: Node: 2 dCoord:   1.000E+00   0.000E+00   0.000E+00
ElementMetric: Node: 3 dCoord:   0.000E+00   1.000E+00   0.000E+00
ElementMetric: Node: 4 dCoord:   5.000E-01   0.000E+00   0.000E+00
ElementMetric: Node: 5 dCoord:   5.000E-01   5.000E-01   0.000E+00
ElementMetric: Node: 6 dCoord:   0.000E+00   5.000E-01   0.000E+00
ElementMetric: Element dim larger than meshdim: 2 vs. 0
ERROR:: ElementMetric: Degenerate 2D element: -1
ElementMetric: Body Id: 0 DetG:   0.000E+00
ElementMetric: Node: 1 Coord:   0.000E+00   0.000E+00   0.000E+00
ElementMetric: Node: 2 Coord:   1.000E+00   0.000E+00   0.000E+00
ElementMetric: Node: 3 Coord:   0.000E+00   1.000E+00   0.000E+00
ElementMetric: Node: 4 Coord:   5.000E-01   0.000E+00   0.000E+00
ElementMetric: Node: 5 Coord:   5.000E-01   5.000E-01   0.000E+00
ElementMetric: Node: 6 Coord:   0.000E+00   5.000E-01   0.000E+00
ElementMetric: Node: 2 dCoord:   1.000E+00   0.000E+00   0.000E+00
ElementMetric: Node: 3 dCoord:   0.000E+00   1.000E+00   0.000E+00
ElementMetric: Node: 4 dCoord:   5.000E-01   0.000E+00   0.000E+00
ElementMetric: Node: 5 dCoord:   5.000E-01   5.000E-01   0.000E+00
ElementMetric: Node: 6 dCoord:   0.000E+00   5.000E-01   0.000E+00
ElementMetric: Element dim larger than meshdim: 2 vs. 0
ERROR:: ElementMetric: Degenerate 2D element: -1
ElementMetric: Body Id: 0 DetG:   0.000E+00
ElementMetric: Node: 1 Coord:   0.000E+00   0.000E+00   0.000E+00
ElementMetric: Node: 2 Coord:   1.000E+00   0.000E+00   0.000E+00
ElementMetric: Node: 3 Coord:   0.000E+00   1.000E+00   0.000E+00
ElementMetric: Node: 4 Coord:   5.000E-01   0.000E+00   0.000E+00
ElementMetric: Node: 5 Coord:   5.000E-01   5.000E-01   0.000E+00
ElementMetric: Node: 6 Coord:   0.000E+00   5.000E-01   0.000E+00
ElementMetric: Node: 2 dCoord:   1.000E+00   0.000E+00   0.000E+00
ElementMetric: Node: 3 dCoord:   0.000E+00   1.000E+00   0.000E+00
ElementMetric: Node: 4 dCoord:   5.000E-01   0.000E+00   0.000E+00
ElementMetric: Node: 5 dCoord:   5.000E-01   5.000E-01   0.000E+00
ElementMetric: Node: 6 dCoord:   0.000E+00   5.000E-01   0.000E+00
ElementMetric: Element dim larger than meshdim: 2 vs. 0
ERROR:: ElementMetric: Degenerate 2D element: -1
ElementMetric: Body Id: 0 DetG:   0.000E+00
ElementMetric: Node: 1 Coord:   0.000E+00   0.000E+00   0.000E+00
ElementMetric: Node: 2 Coord:   1.000E+00   0.000E+00   0.000E+00
ElementMetric: Node: 3 Coord:   0.000E+00   1.000E+00   0.000E+00
ElementMetric: Node: 4 Coord:   5.000E-01   0.000E+00   0.000E+00
ElementMetric: Node: 5 Coord:   5.000E-01   5.000E-01   0.000E+00
ElementMetric: Node: 6 Coord:   0.000E+00   5.000E-01   0.000E+00
ElementMetric: Node: 2 dCoord:   1.000E+00   0.000E+00   0.000E+00
ElementMetric: Node: 3 dCoord:   0.000E+00   1.000E+00   0.000E+00
ElementMetric: Node: 4 dCoord:   5.000E-01   0.000E+00   0.000E+00
ElementMetric: Node: 5 dCoord:   5.000E-01   5.000E-01   0.000E+00
ElementMetric: Node: 6 dCoord:   0.000E+00   5.000E-01   0.000E+00
ElementMetric: Element dim larger than meshdim: 2 vs. 0
LoadMesh: Elapsed REAL time:     6.0018 (s)
MAIN: -------------------------------------
AddVtuOutputSolverHack: Adding ResultOutputSolver to write VTU output in file: case
Loading user function library: [HelmholtzSolve]...[HelmholtzSolver_Init]
Loading user function library: [HelmholtzSolve]...[HelmholtzSolver_bulk]
Loading user function library: [HelmholtzSolve]...[HelmholtzSolver]
OptimizeBandwidth: ---------------------------------------------------------
OptimizeBandwidth: Computing matrix structure for: helmholtz equation...done.
OptimizeBandwidth: Half bandwidth without optimization: 984079
OptimizeBandwidth: 
OptimizeBandwidth: Bandwidth Optimization ...done.
OptimizeBandwidth: Half bandwidth after optimization: 27230
OptimizeBandwidth: ---------------------------------------------------------
Loading user function library: [ResultOutputSolve]...[ResultOutputSolver_Init]
Loading user function library: [ResultOutputSolve]...[ResultOutputSolver_bulk]
Loading user function library: [ResultOutputSolve]...[ResultOutputSolver]
MAIN: 
MAIN: -------------------------------------
MAIN:  Time: 1/6   1.0000000000000000
MAIN: -------------------------------------
MAIN: 
SingleSolver: Attempting to call solver
SingleSolver: Solver Equation string is: helmholtz equation
HelmholtzSolve: 
HelmholtzSolve: -------------------------------------
HelmholtzSolve:  Helmholtz iteration           1
HelmholtzSolve:  Frequency (Hz):    124.99999999999999
HelmholtzSolve: -------------------------------------
HelmholtzSolve: 
HelmholtzSolve: Starting Assembly
HelmholtzSolve: Assembly:
: ....................  9%
: .................... 17%
: .................... 26%
: .................... 34%
: .................... 43%
: .................... 51%
: .................... 60%
: .................... 69%
: .................... 77%
: .................... 86%
: .................... 94%
: .............WARNING:: GetParentMatProp: Invalid parent BodyId 0 for element 2542
WARNING:: GetParentMatProp: Invalid parent BodyId 0 for element 1347
WARNING:: GetParentMatProp: Invalid parent BodyId 0 for element 2072
WARNING:: GetParentMatProp: Invalid parent BodyId 0 for element 2559
WARNING:: GetParentMatProp: Invalid parent BodyId 0 for element 936
WARNING:: GetParentMatProp: Invalid parent BodyId 0 for element 2703
WARNING:: GetParentMatProp: Invalid parent BodyId 0 for element 2439
WARNING:: GetParentMatProp: Invalid parent BodyId 0 for element 847
WARNING:: GetParentMatProp: Invalid parent BodyId 0 for element 1161
WARNING:: GetParentMatProp: Invalid parent BodyId 0 for element 815
WARNING:: GetParentMatProp: Invalid parent BodyId 0 for element 2976
WARNING:: GetParentMatProp: Invalid parent BodyId 0 for element 1204
WARNING:: GetParentMatProp: Invalid parent BodyId 0 for element 887
WARNING:: GetParentMatProp: Invalid parent BodyId 0 for element 3014
WARNING:: GetParentMatProp: Invalid parent BodyId 0 for element 931
WARNING:: GetParentMatProp: Invalid parent BodyId 0 for element 2562
WARNING:: GetParentMatProp: Invalid parent BodyId 0 for element 2751
WARNING:: GetParentMatProp: Invalid parent BodyId 0 for element 2635
WARNING:: GetParentMatProp: Invalid parent BodyId 0 for element 1223
WARNING:: GetParentMatProp: Invalid parent BodyId 0 for element 2799
WARNING:: GetParentMatProp: Invalid parent BodyId 0 for element 1210
WARNING:: GetParentMatProp: Invalid parent BodyId 0 for element 2508
WARNING:: GetParentMatProp: Invalid parent BodyId 0 for element 2932
WARNING:: GetParentMatProp: Invalid parent BodyId 0 for element 2395
WARNING:: GetParentMatProp: Invalid parent BodyId 0 for element 1457
WARNING:: GetParentMatProp: Invalid parent BodyId 0 for element 2902
WARNING:: GetParentMatProp: Invalid parent BodyId 0 for element 810
WARNING:: GetParentMatProp: Invalid parent BodyId 0 for element 1419
WARNING:: GetParentMatProp: Invalid parent BodyId 0 for element 1398
WARNING:: GetParentMatProp: Invalid parent BodyId 0 for element 2782
WARNING:: GetParentMatProp: Invalid parent BodyId 0 for element 298
WARNING:: GetParentMatProp: Invalid parent BodyId 0 for element 1894
WARNING:: GetParentMatProp: Invalid parent BodyId 0 for element 877
WARNING:: GetParentMatProp: Invalid parent BodyId 0 for element 874
WARNING:: GetParentMatProp: Invalid parent BodyId 0 for element 382
WARNING:: GetParentMatProp: Invalid parent BodyId 0 for element 2901
WARNING:: GetParentMatProp: Invalid parent BodyId 0 for element 942
WARNING:: GetParentMatProp: Invalid parent BodyId 0 for element 805
WARNING:: GetParentMatProp: Invalid parent BodyId 0 for element 2273
WARNING:: GetParentMatProp: Invalid parent BodyId 0 for element 1109
WARNING:: GetParentMatProp: Invalid parent BodyId 0 for element 2485
WARNING:: GetParentMatProp: Invalid parent BodyId 0 for element 448
WARNING:: GetParentMatProp: Invalid parent BodyId 0 for element 758
WARNING:: GetParentMatProp: Invalid parent BodyId 0 for element 235
WARNING:: GetParentMatProp: Invalid parent BodyId 0 for element 142
WARNING:: GetParentMatProp: Invalid parent BodyId 0 for element 2533
WARNING:: GetParentMatProp: Invalid parent BodyId 0 for element 1454
WARNING:: GetParentMatProp: Invalid parent BodyId 0 for element 1466
WARNING:: GetParentMatProp: Invalid parent BodyId 0 for element 2715
WARNING:: GetParentMatProp: Invalid parent BodyId 0 for element 375
WARNING:: GetParentMatProp: Invalid parent BodyId 0 for element 2701
WARNING:: GetParentMatProp: Invalid parent BodyId 0 for element 1754
WARNING:: GetParentMatProp: Invalid parent BodyId 0 for element 2939
WARNING:: GetParentMatProp: Invalid parent BodyId 0 for element 2355
WARNING:: GetParentMatProp: Invalid parent BodyId 0 for element 115
WARNING:: GetParentMatProp: Invalid parent BodyId 0 for element 165
WARNING:: GetParentMatProp: Invalid parent BodyId 0 for element 2128
WARNING:: GetParentMatProp: Invalid parent BodyId 0 for element 655
WARNING:: GetParentMatProp: Invalid parent BodyId 0 for element 2233
WARNING:: GetParentMatProp: Invalid parent BodyId 0 for element 2777
WARNING:: GetParentMatProp: Invalid parent BodyId 0 for element 2450
WARNING:: GetParentMatProp: Invalid parent BodyId 0 for element 802
WARNING:: GetParentMatProp: Invalid parent BodyId 0 for element 764
WARNING:: GetParentMatProp: Invalid parent BodyId 0 for element 310
WARNING:: GetParentMatProp: Invalid parent BodyId 0 for element 3041
WARNING:: GetParentMatProp: Invalid parent BodyId 0 for element 1358
WARNING:: GetParentMatProp: Invalid parent BodyId 0 for element 2821
WARNING:: GetParentMatProp: Invalid parent BodyId 0 for element 672
WARNING:: GetParentMatProp: Invalid parent BodyId 0 for element 2436
WARNING:: GetParentMatProp: Invalid parent BodyId 0 for element 804
WARNING:: GetParentMatProp: Invalid parent BodyId 0 for element 1586
WARNING:: GetParentMatProp: Invalid parent BodyId 0 for element 1949
WARNING:: GetParentMatProp: Invalid parent BodyId 0 for element 1283
WARNING:: GetParentMatProp: Invalid parent BodyId 0 for element 2302
WARNING:: GetParentMatProp: Invalid parent BodyId 0 for element 1381
WARNING:: GetParentMatProp: Invalid parent BodyId 0 for element 217
WARNING:: GetParentMatProp: Invalid parent BodyId 0 for element 2109
WARNING:: GetParentMatProp: Invalid parent BodyId 0 for element 417
WARNING:: GetParentMatProp: Invalid parent BodyId 0 for element 841
WARNING:: GetParentMatProp: Invalid parent BodyId 0 for element 1481
WARNING:: GetParentMatProp: Invalid parent BodyId 0 for element 3118
WARNING:: GetParentMatProp: Invalid parent BodyId 0 for element 2286
WARNING:: GetParentMatProp: Invalid parent BodyId 0 for element 3147
WARNING:: GetParentMatProp: Invalid parent BodyId 0 for element 2619
WARNING:: GetParentMatProp: Invalid parent BodyId 0 for element 839
WARNING:: GetParentMatProp: Invalid parent BodyId 0 for element 231
WARNING:: GetParentMatProp: Invalid parent BodyId 0 for element 1825
WARNING:: GetParentMatProp: Invalid parent BodyId 0 for element 2447
WARNING:: GetParentMatProp: Invalid parent BodyId 0 for element 42
WARNING:: GetParentMatProp: Invalid parent BodyId 0 for element 2204
WARNING:: GetParentMatProp: Invalid parent BodyId 0 for element 473
WARNING:: GetParentMatProp: Invalid parent BodyId 0 for element 1720
WARNING:: GetParentMatProp: Invalid parent BodyId 0 for element 1873
WARNING:: GetParentMatProp: Invalid parent BodyId 0 for element 1965
WARNING:: GetParentMatProp: Invalid parent BodyId 0 for element 2190
WARNING:: GetParentMatProp: Invalid parent BodyId 0 for element 2183
WARNING:: GetParentMatProp: Invalid parent BodyId 0 for element 2004
WARNING:: GetParentMatProp: Invalid parent BodyId 0 for element 432
WARNING:: GetParentMatProp: Invalid parent BodyId 0 for element 2265
WARNING:: GetParentMatProp: Invalid parent BodyId 0 for element 1503
WARNING:: GetParentMatProp: Invalid parent BodyId 0 for element 752
WARNING:: GetParentMatProp: Invalid parent BodyId 0 for element 2691
WARNING:: GetParentMatProp: Invalid parent BodyId 0 for element 2036
WARNING:: GetParentMatProp: Invalid parent BodyId 0 for element 151
WARNING:: GetParentMatProp: Invalid parent BodyId 0 for element 1595
WARNING:: GetParentMatProp: Invalid parent BodyId 0 for element 673
WARNING:: GetParentMatProp: Invalid parent BodyId 0 for element 2145
WARNING:: GetParentMatProp: Invalid parent BodyId 0 for element 1719
WARNING:: GetParentMatProp: Invalid parent BodyId 0 for element 3206
WARNING:: GetParentMatProp: Invalid parent BodyId 0 for element 821
WARNING:: GetParentMatProp: Invalid parent BodyId 0 for element 1960
WARNING:: GetParentMatProp: Invalid parent BodyId 0 for element 181
WARNING:: GetParentMatProp: Invalid parent BodyId 0 for element 1298
WARNING:: GetParentMatProp: Invalid parent BodyId 0 for element 1906
WARNING:: GetParentMatProp: Invalid parent BodyId 0 for element 2478
WARNING:: GetParentMatProp: Invalid parent BodyId 0 for element 328
WARNING:: GetParentMatProp: Invalid parent BodyId 0 for element 19
WARNING:: GetParentMatProp: Invalid parent BodyId 0 for element 2832
WARNING:: GetParentMatProp: Invalid parent BodyId 0 for element 2669
WARNING:: GetParentMatProp: Invalid parent BodyId 0 for element 994
WARNING:: GetParentMatProp: Invalid parent BodyId 0 for element 2524
WARNING:: GetParentMatProp: Invalid parent BodyId 0 for element 670
WARNING:: GetParentMatProp: Invalid parent BodyId 0 for element 1132
WARNING:: GetParentMatProp: Invalid parent BodyId 0 for element 1066
WARNING:: GetParentMatProp: Invalid parent BodyId 0 for element 60
WARNING:: GetParentMatProp: Invalid parent BodyId 0 for element 2545
WARNING:: GetParentMatProp: Invalid parent BodyId 0 for element 514
WARNING:: GetParentMatProp: Invalid parent BodyId 0 for element 2185
WARNING:: GetParentMatProp: Invalid parent BodyId 0 for element 2551
WARNING:: GetParentMatProp: Invalid parent BodyId 0 for element 1637
WARNING:: GetParentMatProp: Invalid parent BodyId 0 for element 876
WARNING:: GetParentMatProp: Invalid parent BodyId 0 for element 2197
WARNING:: GetParentMatProp: Invalid parent BodyId 0 for element 846
WARNING:: GetParentMatProp: Invalid parent BodyId 0 for element 2456
WARNING:: GetParentMatProp: Invalid parent BodyId 0 for element 1034
WARNING:: GetParentMatProp: Invalid parent BodyId 0 for element 1860
WARNING:: GetParentMatProp: Invalid parent BodyId 0 for element 2276
WARNING:: GetParentMatProp: Invalid parent BodyId 0 for element 2208
WARNING:: GetParentMatProp: Invalid parent BodyId 0 for element 1196
WARNING:: GetParentMatProp: Invalid parent BodyId 0 for element 519
WARNING:: GetParentMatProp: Invalid parent BodyId 0 for element 1380
WARNING:: GetParentMatProp: Invalid parent BodyId 0 for element 1228
WARNING:: GetParentMatProp: Invalid parent BodyId 0 for element 2198
WARNING:: GetParentMatProp: Invalid parent BodyId 0 for element 2192
WARNING:: GetParentMatProp: Invalid parent BodyId 0 for element 1972
WARNING:: GetParentMatProp: Invalid parent BodyId 0 for element 2820
WARNING:: GetParentMatProp: Invalid parent BodyId 0 for element 1832
WARNING:: GetParentMatProp: Invalid parent BodyId 0 for element 676
WARNING:: GetParentMatProp: Invalid parent BodyId 0 for element 1710
WARNING:: GetParentMatProp: Invalid parent BodyId 0 for element 2592
WARNING:: GetParentMatProp: Invalid parent BodyId 0 for element 170
WARNING:: GetParentMatProp: Invalid parent BodyId 0 for element 1889
WARNING:: GetParentMatProp: Invalid parent BodyId 0 for element 922
WARNING:: GetParentMatProp: Invalid parent BodyId 0 for element 2942
WARNING:: GetParentMatProp: Invalid parent BodyId 0 for element 2105
WARNING:: GetParentMatProp: Invalid parent BodyId 0 for element 2342
WARNING:: GetParentMatProp: Invalid parent BodyId 0 for element 1517
WARNING:: GetParentMatProp: Invalid parent BodyId 0 for element 1916
WARNING:: GetParentMatProp: Invalid parent BodyId 0 for element 396
WARNING:: GetParentMatProp: Invalid parent BodyId 0 for element 3006
WARNING:: GetParentMatProp: Invalid parent BodyId 0 for element 1753
WARNING:: GetParentMatProp: Invalid parent BodyId 0 for element 2448
WARNING:: GetParentMatProp: Invalid parent BodyId 0 for element 1938
WARNING:: GetParentMatProp: Invalid parent BodyId 0 for element 1713
WARNING:: GetParentMatProp: Invalid parent BodyId 0 for element 1560
WARNING:: GetParentMatProp: Invalid parent BodyId 0 for element 2348
WARNING:: GetParentMatProp: Invalid parent BodyId 0 for element 78
WARNING:: GetParentMatProp: Invalid parent BodyId 0 for element 1515
WARNING:: GetParentMatProp: Invalid parent BodyId 0 for element 1387
WARNING:: GetParentMatProp: Invalid parent BodyId 0 for element 2621
WARNING:: GetParentMatProp: Invalid parent BodyId 0 for element 2454
WARNING:: GetParentMatProp: Invalid parent BodyId 0 for element 2022
WARNING:: GetParentMatProp: Invalid parent BodyId 0 for element 2536
WARNING:: GetParentMatProp: Invalid parent BodyId 0 for element 204
WARNING:: GetParentMatProp: Invalid parent BodyId 0 for element 1225
WARNING:: GetParentMatProp: Invalid parent BodyId 0 for element 1952
WARNING:: GetParentMatProp: Invalid parent BodyId 0 for element 2079
WARNING:: GetParentMatProp: Invalid parent BodyId 0 for element 1699
WARNING:: GetParentMatProp: Invalid parent BodyId 0 for element 2335
WARNING:: GetParentMatProp: Invalid parent BodyId 0 for element 1216
WARNING:: GetParentMatProp: Invalid parent BodyId 0 for element 2166
WARNING:: GetParentMatProp: Invalid parent BodyId 0 for element 1529
WARNING:: GetParentMatProp: Invalid parent BodyId 0 for element 540
WARNING:: GetParentMatProp: Invalid parent BodyId 0 for element 624
WARNING:: GetParentMatProp: Invalid parent BodyId 0 for element 912
WARNING:: GetParentMatProp: Invalid parent BodyId 0 for element 1203
WARNING:: GetParentMatProp: Invalid parent BodyId 0 for element 341
WARNING:: GetParentMatProp: Invalid parent BodyId 0 for element 1110
WARNING:: GetParentMatProp: Invalid parent BodyId 0 for element 2130
WARNING:: GetParentMatProp: Invalid parent BodyId 0 for element 1546
WARNING:: GetParentMatProp: Invalid parent BodyId 0 for element 1631
WARNING:: GetParentMatProp: Invalid parent BodyId 0 for element 1236
WARNING:: GetParentMatProp: Invalid parent BodyId 0 for element 2038
WARNING:: GetParentMatProp: Invalid parent BodyId 0 for element 851
WARNING:: GetParentMatProp: Invalid parent BodyId 0 for element 863
WARNING:: GetParentMatProp: Invalid parent BodyId 0 for element 52
WARNING:: GetParentMatProp: Invalid parent BodyId 0 for element 983
WARNING:: GetParentMatProp: Invalid parent BodyId 0 for element 2943
WARNING:: GetParentMatProp: Invalid parent BodyId 0 for element 3037
WARNING:: GetParentMatProp: Invalid parent BodyId 0 for element 1790
WARNING:: GetParentMatProp: Invalid parent BodyId 0 for element 1616
WARNING:: GetParentMatProp: Invalid parent BodyId 0 for element 524
WARNING:: GetParentMatProp: Invalid parent BodyId 0 for element 654
WARNING:: GetParentMatProp: Invalid parent BodyId 0 for element 2028
WARNING:: GetParentMatProp: Invalid parent BodyId 0 for element 1747
[...]
WARNING:: GetParentMatProp: Invalid parent BodyId 0 for element 887
WARNING:: GetParentMatProp: Invalid parent BodyId 0 for element 3014
WARNING:: GetParentMatProp: Invalid parent BodyId 0 for element 931
WARNING:: GetParentMatProp: Invalid parent BodyId 0 for element 2562
WARNING:: GetParentMatProp: Invalid parent BodyId 0 for element 2751
WARNING:: GetParentMatProp: Invalid parent BodyId 0 for element 2635
WARNING:: GetParentMatProp: Invalid parent BodyId 0 for element 1223
WARNING:: GetParentMatProp: Invalid parent BodyId 0 for element 2799
WARNING:: GetParentMatProp: Invalid parent BodyId 0 for element 1210
WARNING:: GetParentMatProp: Invalid parent BodyId 0 for element 2508
WARNING:: GetParentMatProp: Invalid parent BodyId 0 for element 2932
WARNING:: GetParentMatProp: Invalid parent BodyId 0 for element 2395
WARNING:: GetParentMatProp: Invalid parent BodyId 0 for element 1457
WARNING:: GetParentMatProp: Invalid parent BodyId 0 for element 2902
WARNING:: GetParentMatProp: Invalid parent BodyId 0 for element 810
WARNING:: GetParentMatProp: Invalid parent BodyId 0 for element 1419
WARNING:: GetParentMatProp: Invalid parent BodyId 0 for element 1398
WARNING:: GetParentMatProp: Invalid parent BodyId 0 for element 2782
WARNING:: GetParentMatProp: Invalid parent BodyId 0 for element 298
WARNING:: GetParentMatProp: Invalid parent BodyId 0 for element 1894
WARNING:: GetParentMatProp: Invalid parent BodyId 0 for element 877
WARNING:: GetParentMatProp: Invalid parent BodyId 0 for element 874
WARNING:: GetParentMatProp: Invalid parent BodyId 0 for element 382
WARNING:: GetParentMatProp: Invalid parent BodyId 0 for element 2901
WARNING:: GetParentMatProp: Invalid parent BodyId 0 for element 942
WARNING:: GetParentMatProp: Invalid parent BodyId 0 for element 805
WARNING:: GetParentMatProp: Invalid parent BodyId 0 for element 2273
WARNING:: GetParentMatProp: Invalid parent BodyId 0 for element 1109
WARNING:: GetParentMatProp: Invalid parent BodyId 0 for element 2485
WARNING:: GetParentMatProp: Invalid parent BodyId 0 for element 448
WARNING:: GetParentMatProp: Invalid parent BodyId 0 for element 758
WARNING:: GetParentMatProp: Invalid parent BodyId 0 for element 235
WARNING:: GetParentMatProp: Invalid parent BodyId 0 for element 142
WARNING:: GetParentMatProp: Invalid parent BodyId 0 for element 2533
WARNING:: GetParentMatProp: Invalid parent BodyId 0 for element 1454
WARNING:: GetParentMatProp: Invalid parent BodyId 0 for element 1466
WARNING:: GetParentMatProp: Invalid parent BodyId 0 for element 2715
WARNING:: GetParentMatProp: Invalid parent BodyId 0 for element 375
WARNING:: GetParentMatProp: Invalid parent BodyId 0 for element 2701
WARNING:: GetParentMatProp: Invalid parent BodyId 0 for element 1754
WARNING:: GetParentMatProp: Invalid parent BodyId 0 for element 2939
WARNING:: GetParentMatProp: Invalid parent BodyId 0 for element 2355
WARNING:: GetParentMatProp: Invalid parent BodyId 0 for element 115
WARNING:: GetParentMatProp: Invalid parent BodyId 0 for element 165
WARNING:: GetParentMatProp: Invalid parent BodyId 0 for element 2128
WARNING:: GetParentMatProp: Invalid parent BodyId 0 for element 655
WARNING:: GetParentMatProp: Invalid parent BodyId 0 for element 2233
WARNING:: GetParentMatProp: Invalid parent BodyId 0 for element 2777
WARNING:: GetParentMatProp: Invalid parent BodyId 0 for element 2450
WARNING:: GetParentMatProp: Invalid parent BodyId 0 for element 802
WARNING:: GetParentMatProp: Invalid parent BodyId 0 for element 764
WARNING:: GetParentMatProp: Invalid parent BodyId 0 for element 310
WARNING:: GetParentMatProp: Invalid parent BodyId 0 for element 3041
WARNING:: GetParentMatProp: Invalid parent BodyId 0 for element 1358
WARNING:: GetParentMatProp: Invalid parent BodyId 0 for element 2821
WARNING:: GetParentMatProp: Invalid parent BodyId 0 for element 672
WARNING:: GetParentMatProp: Invalid parent BodyId 0 for element 2436
WARNING:: GetParentMatProp: Invalid parent BodyId 0 for element 804
WARNING:: GetParentMatProp: Invalid parent BodyId 0 for element 1586
WARNING:: GetParentMatProp: Invalid parent BodyId 0 for element 1949
WARNING:: GetParentMatProp: Invalid parent BodyId 0 for element 1283
WARNING:: GetParentMatProp: Invalid parent BodyId 0 for element 2302
WARNING:: GetParentMatProp: Invalid parent BodyId 0 for element 1381
WARNING:: GetParentMatProp: Invalid parent BodyId 0 for element 217
WARNING:: GetParentMatProp: Invalid parent BodyId 0 for element 2109
WARNING:: GetParentMatProp: Invalid parent BodyId 0 for element 417
WARNING:: GetParentMatProp: Invalid parent BodyId 0 for element 841
WARNING:: GetParentMatProp: Invalid parent BodyId 0 for element 1481
WARNING:: GetParentMatProp: Invalid parent BodyId 0 for element 3118
WARNING:: GetParentMatProp: Invalid parent BodyId 0 for element 2286
WARNING:: GetParentMatProp: Invalid parent BodyId 0 for element 3147
WARNING:: GetParentMatProp: Invalid parent BodyId 0 for element 2619
WARNING:: GetParentMatProp: Invalid parent BodyId 0 for element 839
WARNING:: GetParentMatProp: Invalid parent BodyId 0 for element 231
WARNING:: GetParentMatProp: Invalid parent BodyId 0 for element 1825
WARNING:: GetParentMatProp: Invalid parent BodyId 0 for element 2447
WARNING:: GetParentMatProp: Invalid parent BodyId 0 for element 42
WARNING:: GetParentMatProp: Invalid parent BodyId 0 for element 2204
WARNING:: GetParentMatProp: Invalid parent BodyId 0 for element 473
WARNING:: GetParentMatProp: Invalid parent BodyId 0 for element 1720
WARNING:: GetParentMatProp: Invalid parent BodyId 0 for element 1873
WARNING:: GetParentMatProp: Invalid parent BodyId 0 for element 1965
WARNING:: GetParentMatProp: Invalid parent BodyId 0 for element 2190
WARNING:: GetParentMatProp: Invalid parent BodyId 0 for element 2183
WARNING:: GetParentMatProp: Invalid parent BodyId 0 for element 2004
WARNING:: GetParentMatProp: Invalid parent BodyId 0 for element 432
WARNING:: GetParentMatProp: Invalid parent BodyId 0 for element 2265
WARNING:: GetParentMatProp: Invalid parent BodyId 0 for element 1503
WARNING:: GetParentMatProp: Invalid parent BodyId 0 for element 752
WARNING:: GetParentMatProp: Invalid parent BodyId 0 for element 2691
WARNING:: GetParentMatProp: Invalid parent BodyId 0 for element 2036
WARNING:: GetParentMatProp: Invalid parent BodyId 0 for element 151
WARNING:: GetParentMatProp: Invalid parent BodyId 0 for element 1595
WARNING:: GetParentMatProp: Invalid parent BodyId 0 for element 673
WARNING:: GetParentMatProp: Invalid parent BodyId 0 for element 2145
WARNING:: GetParentMatProp: Invalid parent BodyId 0 for element 1719
WARNING:: GetParentMatProp: Invalid parent BodyId 0 for element 3206
WARNING:: GetParentMatProp: Invalid parent BodyId 0 for element 821
WARNING:: GetParentMatProp: Invalid parent BodyId 0 for element 1960
WARNING:: GetParentMatProp: Invalid parent BodyId 0 for element 181
WARNING:: GetParentMatProp: Invalid parent BodyId 0 for element 1298
WARNING:: GetParentMatProp: Invalid parent BodyId 0 for element 1906
WARNING:: GetParentMatProp: Invalid parent BodyId 0 for element 2478
WARNING:: GetParentMatProp: Invalid parent BodyId 0 for element 328
WARNING:: GetParentMatProp: Invalid parent BodyId 0 for element 19
WARNING:: GetParentMatProp: Invalid parent BodyId 0 for element 2832
WARNING:: GetParentMatProp: Invalid parent BodyId 0 for element 2669
WARNING:: GetParentMatProp: Invalid parent BodyId 0 for element 994
WARNING:: GetParentMatProp: Invalid parent BodyId 0 for element 2524
WARNING:: GetParentMatProp: Invalid parent BodyId 0 for element 670
WARNING:: GetParentMatProp: Invalid parent BodyId 0 for element 1132
WARNING:: GetParentMatProp: Invalid parent BodyId 0 for element 1066
WARNING:: GetParentMatProp: Invalid parent BodyId 0 for element 60
WARNING:: GetParentMatProp: Invalid parent BodyId 0 for element 2545
WARNING:: GetParentMatProp: Invalid parent BodyId 0 for element 514
WARNING:: GetParentMatProp: Invalid parent BodyId 0 for element 2185
WARNING:: GetParentMatProp: Invalid parent BodyId 0 for element 2551
WARNING:: GetParentMatProp: Invalid parent BodyId 0 for element 1637
WARNING:: GetParentMatProp: Invalid parent BodyId 0 for element 876
WARNING:: GetParentMatProp: Invalid parent BodyId 0 for element 2197
WARNING:: GetParentMatProp: Invalid parent BodyId 0 for element 846
WARNING:: GetParentMatProp: Invalid parent BodyId 0 for element 2456
WARNING:: GetParentMatProp: Invalid parent BodyId 0 for element 1034
WARNING:: GetParentMatProp: Invalid parent BodyId 0 for element 1860
WARNING:: GetParentMatProp: Invalid parent BodyId 0 for element 2276
WARNING:: GetParentMatProp: Invalid parent BodyId 0 for element 2208
WARNING:: GetParentMatProp: Invalid parent BodyId 0 for element 1196
WARNING:: GetParentMatProp: Invalid parent BodyId 0 for element 519
WARNING:: GetParentMatProp: Invalid parent BodyId 0 for element 1380
WARNING:: GetParentMatProp: Invalid parent BodyId 0 for element 1228
WARNING:: GetParentMatProp: Invalid parent BodyId 0 for element 2198
WARNING:: GetParentMatProp: Invalid parent BodyId 0 for element 2192
WARNING:: GetParentMatProp: Invalid parent BodyId 0 for element 1972
WARNING:: GetParentMatProp: Invalid parent BodyId 0 for element 2820
WARNING:: GetParentMatProp: Invalid parent BodyId 0 for element 1832
WARNING:: GetParentMatProp: Invalid parent BodyId 0 for element 676
WARNING:: GetParentMatProp: Invalid parent BodyId 0 for element 1710
WARNING:: GetParentMatProp: Invalid parent BodyId 0 for element 2592
WARNING:: GetParentMatProp: Invalid parent BodyId 0 for element 170
WARNING:: GetParentMatProp: Invalid parent BodyId 0 for element 1889
WARNING:: GetParentMatProp: Invalid parent BodyId 0 for element 922
WARNING:: GetParentMatProp: Invalid parent BodyId 0 for element 2942
WARNING:: GetParentMatProp: Invalid parent BodyId 0 for element 2105
WARNING:: GetParentMatProp: Invalid parent BodyId 0 for element 2342
WARNING:: GetParentMatProp: Invalid parent BodyId 0 for element 1517
WARNING:: GetParentMatProp: Invalid parent BodyId 0 for element 1916
WARNING:: GetParentMatProp: Invalid parent BodyId 0 for element 396
WARNING:: GetParentMatProp: Invalid parent BodyId 0 for element 3006
WARNING:: GetParentMatProp: Invalid parent BodyId 0 for element 1753
WARNING:: GetParentMatProp: Invalid parent BodyId 0 for element 2448
WARNING:: GetParentMatProp: Invalid parent BodyId 0 for element 1938
WARNING:: GetParentMatProp: Invalid parent BodyId 0 for element 1713
WARNING:: GetParentMatProp: Invalid parent BodyId 0 for element 1560
WARNING:: GetParentMatProp: Invalid parent BodyId 0 for element 2348
WARNING:: GetParentMatProp: Invalid parent BodyId 0 for element 78
WARNING:: GetParentMatProp: Invalid parent BodyId 0 for element 1515
WARNING:: GetParentMatProp: Invalid parent BodyId 0 for element 1387
WARNING:: GetParentMatProp: Invalid parent BodyId 0 for element 2621
WARNING:: GetParentMatProp: Invalid parent BodyId 0 for element 2454
WARNING:: GetParentMatProp: Invalid parent BodyId 0 for element 2022
WARNING:: GetParentMatProp: Invalid parent BodyId 0 for element 2536
WARNING:: GetParentMatProp: Invalid parent BodyId 0 for element 204
WARNING:: GetParentMatProp: Invalid parent BodyId 0 for element 1225
WARNING:: GetParentMatProp: Invalid parent BodyId 0 for element 1952
WARNING:: GetParentMatProp: Invalid parent BodyId 0 for element 2079
WARNING:: GetParentMatProp: Invalid parent BodyId 0 for element 1699
WARNING:: GetParentMatProp: Invalid parent BodyId 0 for element 2335
WARNING:: GetParentMatProp: Invalid parent BodyId 0 for element 1216
WARNING:: GetParentMatProp: Invalid parent BodyId 0 for element 2166
WARNING:: GetParentMatProp: Invalid parent BodyId 0 for element 1529
WARNING:: GetParentMatProp: Invalid parent BodyId 0 for element 540
WARNING:: GetParentMatProp: Invalid parent BodyId 0 for element 624
WARNING:: GetParentMatProp: Invalid parent BodyId 0 for element 912
WARNING:: GetParentMatProp: Invalid parent BodyId 0 for element 1203
WARNING:: GetParentMatProp: Invalid parent BodyId 0 for element 341
WARNING:: GetParentMatProp: Invalid parent BodyId 0 for element 1110
WARNING:: GetParentMatProp: Invalid parent BodyId 0 for element 2130
WARNING:: GetParentMatProp: Invalid parent BodyId 0 for element 1546
WARNING:: GetParentMatProp: Invalid parent BodyId 0 for element 1631
WARNING:: GetParentMatProp: Invalid parent BodyId 0 for element 1236
WARNING:: GetParentMatProp: Invalid parent BodyId 0 for element 2038
WARNING:: GetParentMatProp: Invalid parent BodyId 0 for element 851
WARNING:: GetParentMatProp: Invalid parent BodyId 0 for element 863
WARNING:: GetParentMatProp: Invalid parent BodyId 0 for element 52
WARNING:: GetParentMatProp: Invalid parent BodyId 0 for element 983
WARNING:: GetParentMatProp: Invalid parent BodyId 0 for element 2943
WARNING:: GetParentMatProp: Invalid parent BodyId 0 for element 3037
WARNING:: GetParentMatProp: Invalid parent BodyId 0 for element 1790
WARNING:: GetParentMatProp: Invalid parent BodyId 0 for element 1616
WARNING:: GetParentMatProp: Invalid parent BodyId 0 for element 524
WARNING:: GetParentMatProp: Invalid parent BodyId 0 for element 654
WARNING:: GetParentMatProp: Invalid parent BodyId 0 for element 2028
WARNING:: GetParentMatProp: Invalid parent BodyId 0 for element 1747
WARNING:: GetParentMatProp: Invalid parent BodyId 0 for element 635
WARNING:: GetParentMatProp: Invalid parent BodyId 0 for element 1900
WARNING:: GetParentMatProp: Invalid parent BodyId 0 for element 1868
WARNING:: GetParentMatProp: Invalid parent BodyId 0 for element 2528
WARNING:: GetParentMatProp: Invalid parent BodyId 0 for element 1727
WARNING:: GetParentMatProp: Invalid parent BodyId 0 for element 982
WARNING:: GetParentMatProp: Invalid parent BodyId 0 for element 399
WARNING:: GetParentMatProp: Invalid parent BodyId 0 for element 521
WARNING:: GetParentMatProp: Invalid parent BodyId 0 for element 3009
WARNING:: GetParentMatProp: Invalid parent BodyId 0 for element 1395
WARNING:: GetParentMatProp: Invalid parent BodyId 0 for element 1025
WARNING:: GetParentMatProp: Invalid parent BodyId 0 for element 623
WARNING:: GetParentMatProp: Invalid parent BodyId 0 for element 2054
WARNING:: GetParentMatProp: Invalid parent BodyId 0 for element 1729
WARNING:: GetParentMatProp: Invalid parent BodyId 0 for element 1322
WARNING:: GetParentMatProp: Invalid parent BodyId 0 for element 1414
WARNING:: GetParentMatProp: Invalid parent BodyId 0 for element 65
WARNING:: GetParentMatProp: Invalid parent BodyId 0 for element 2126
WARNING:: GetParentMatProp: Invalid parent BodyId 0 for element 545
WARNING:: GetParentMatProp: Invalid parent BodyId 0 for element 3097
WARNING:: GetParentMatProp: Invalid parent BodyId 0 for element 664
WARNING:: GetParentMatProp: Invalid parent BodyId 0 for element 1411
WARNING:: GetParentMatProp: Invalid parent BodyId 0 for element 2897
WARNING:: GetParentMatProp: Invalid parent BodyId 0 for element 3019
WARNING:: GetParentMatProp: Invalid parent BodyId 0 for element 1945
WARNING:: GetParentMatProp: Invalid parent BodyId 0 for element 2275
WARNING:: GetParentMatProp: Invalid parent BodyId 0 for element 1473
WARNING:: GetParentMatProp: Invalid parent BodyId 0 for element 1155
WARNING:: GetParentMatProp: Invalid parent BodyId 0 for element 1840
WARNING:: GetParentMatProp: Invalid parent BodyId 0 for element 3049
WARNING:: GetParentMatProp: Invalid parent BodyId 0 for element 1141
Assembly done
DefUtils::DefaultDirichletBCs: Setting Dirichlet boundary conditions
DefUtils::DefaultDirichletBCs: Dirichlet boundary conditions set
CRS_ComplexILUT: ILU(T) (Complex), Starting factorization:
CRS_ComplexILUT:  ILU(T) (Complex), NOF nonzeros:     81335514
CRS_ComplexILUT:  ILU(T) (Complex), filling (%):          294
CRS_ComplexILUT: ILU(T) (Complex), Factorization ready at (s):  1171.05
IterSolver: Calling complex iterative solver
      10 0.5443E-01
      20 0.2486E-01
      30 0.1897E-01
      40 0.2589E-01
      50 0.1486E-01
      60 0.1174E-01
      70 0.3065E-01
      80 0.7435E-02
      90 0.1425E-01
     100 0.7258E-02
     110 0.6509E-01
     120 0.6559E-02
     130 0.5467E-02
     140 0.1815E-01
     150 0.6923E-02
     160 0.8195E-02
     170 0.3571E-01
     180 0.3571E-01
     190 0.2613E-01
     200 0.1601E-01
     210 0.1960E-01
     220 0.3653E-01
     230 0.3105E-01
     240 0.4489E-01
     250 0.4171E-02
     260 0.4233E-02
     270 0.3506E-02
     280 0.5097E-02
     290 0.4711E-02
     300 0.3296E-02
     310 0.3209E-02
     320 0.3426E-02
     330 0.4008E-02
     340 0.3816E-02
     350 0.3611E-02
     360 0.3885E-02
     370 0.3944E-02
     380 0.3808E-02
     390 0.4067E-02
     400 0.4054E-02
     410 0.4059E-02
     420 0.5521E-02
     430 0.3938E-02
     440 0.4122E-02
     450 0.4002E-02
     460 0.3339E-02
     470 0.4632E-02
     480 0.3141E-02
     490 0.4068E-02
     500 0.2895E-02
     510 0.2650E-02
     520 0.2733E-02
     530 0.2461E-02
     540 0.2864E-02
     550 0.2667E-02
     560 0.2749E-02
     570 0.2439E-02
     580 0.2773E-02
     590 0.2431E-02
     600 0.2438E-02
     610 0.2512E-02
     620 0.3108E-02
     630 0.3567E-02
     640 0.4085E-02
     650 0.3756E-02
     660 0.4898E-02
     670 0.3095E-02
     680 0.4174E-02
     690 0.4263E-02
     700 0.2660E-02
     710 0.3519E-02
     720 0.2939E-02
     730 0.2616E-02
     740 0.5262E-02
     750 0.3409E-02
     760 0.2955E-02
     770 0.3435E-02
     780 0.3694E-02
     790 0.5866E-02
     800 0.3555E-02
     810 0.5992E-02
     820 0.1368E-01
     830 0.2257E-02
     840 0.3966E-02
     850 0.6198E-02
     860 0.3886E-02
     870 0.6549E-02
     880 0.6100E-02
     890 0.5340E-02
     900 0.3878E-02
     910 0.1084E-01
     920 0.3890E-02
     930 0.4340E-02
     940 0.3803E-02
     950 0.4114E-02
     960 0.3158E-02
     970 0.1702E-02
     980 0.1586E-02
     990 0.1858E-02
    1000 0.1584E-02
    1010 0.1185E-02
    1020 0.2514E-02
    1030 0.1780E-02
    1040 0.1245E-02
    1050 0.2042E-02
    1060 0.3003E-02
    1070 0.1763E-02
    1080 0.4061E-02
    1090 0.1906E-02
    1100 0.2783E-02
    1110 0.1755E-02
    1120 0.2175E-02
    1130 0.5036E-03
    1140 0.1079E-01
    1150 0.5781E-03
    1160 0.4784E-03
    1170 0.4842E-03
    1180 0.4515E-03
    1190 0.4546E-03
    1200 0.4324E-03
    1210 0.6205E-03
    1220 0.3564E-03
    1230 0.3483E-03
    1240 0.4123E-03
    1250 0.5319E-03
    1260 0.4000E-03
    1270 0.3456E-03
    1280 0.3622E-03
    1290 0.3388E-03
    1300 0.3416E-03
    1310 0.2955E-03
    1320 0.3021E-03
    1330 0.3077E-03
    1340 0.3254E-03
    1350 0.4758E-03
    1360 0.3838E-03
    1370 0.4169E-03
    1380 0.3954E-03
    1390 0.5179E-03
    1400 0.3650E-03
    1410 0.3216E-03
    1420 0.2963E-03
    1430 0.2863E-03
    1440 0.3095E-03
    1450 0.3507E-03
    1460 0.3140E-03
    1470 0.3092E-03
    1480 0.1976E-03
    1490 0.1961E-03
    1500 0.1822E-03
    1510 0.1943E-03
    1520 0.1351E-03
    1530 0.1746E-03
    1540 0.1281E-03
    1550 0.1387E-03
    1560 0.9543E-04
    1570 0.1251E-03
    1580 0.1218E-03
    1590 0.1120E-03
    1600 0.1038E-03
    1610 0.1022E-03
    1620 0.9586E-04
    1630 0.9044E-04
    1640 0.9502E-04
    1650 0.9346E-04
    1660 0.1059E-03
    1670 0.1031E-03
    1680 0.2892E-03
    1690 0.8767E-04
    1700 0.1818E-03
    1710 0.1610E-03
    1720 0.1125E-03
    1730 0.3021E-03
    1740 0.2921E-03
    1750 0.4663E-04
    1760 0.8970E-04
    1770 0.1149E-02
    1780 0.1547E-03
    1790 0.1192E-03
    1800 0.4587E-04
    1810 0.1095E-03
    1820 0.1806E-03
    1830 0.2743E-04
    1840 0.3301E-04
    1850 0.1798E-04
    1860 0.1427E-03
    1870 0.7144E-04
    1880 0.1563E-04
    1890 0.6119E-04
    1900 0.3449E-04
    1910 0.1773E-03
    1920 0.3179E-04
    1930 0.9008E-05
    1940 0.1246E-04
    1950 0.1018E-04
    1960 0.5720E-04
    1970 0.1155E-04
    1980 0.1038E-04
    1990 0.8462E-05
    2000 0.7024E-05
NUMERICAL ERROR:: IterSolve: Too many iterations was needed.
Note: The following floating-point exceptions are signalling: IEEE_DENORMAL