ELMER SOLVER (v 8.3) STARTED AT: 2020/05/02 16:27:12
ParCommInit:  Initialize #PEs:            1
MAIN: OMP_NUM_THREADS not set. Using only 1 thread per task.
MAIN: 
MAIN: =============================================================
MAIN: ElmerSolver finite element software, Welcome!
MAIN: This program is free software licensed under (L)GPL
MAIN: Copyright 1st April 1995 - , CSC - IT Center for Science Ltd.
MAIN: Webpage http://www.csc.fi/elmer, Email elmeradm@csc.fi
MAIN: Version: 8.3 (Rev: f90766a, Compiled: 2018-10-31)
MAIN:  Running one task without MPI parallelization.
MAIN:  Running with just one thread per task.
MAIN:  HYPRE library linked in.
MAIN:  MUMPS library linked in.
MAIN:  Lua interpreted linked in.
MAIN: =============================================================
MAIN: 
MAIN: 
MAIN: -------------------------------------
MAIN: Reading Model: case.sif
LoadInputFile: Scanning input file: case.sif
LoadInputFile: Loading input file: case.sif
Loading user function library: [HelmholtzSolve]...[HelmholtzSolver_Init0]
LoadMesh: Base mesh name: ./.
LoadMesh: Scaling coordinates: 1.000E-03 1.000E-03 1.000E-03
ERROR:: ElementMetric: Degenerate 3D element: -1
ElementMetric: Body Id: 0 DetG:   0.000E+00
ElementMetric: Node: 1 Coord:   0.000E+00   0.000E+00   0.000E+00
ElementMetric: Node: 2 Coord:   1.000E+00   0.000E+00   0.000E+00
ElementMetric: Node: 3 Coord:   0.000E+00   1.000E+00   0.000E+00
ElementMetric: Node: 4 Coord:   0.000E+00   0.000E+00   1.000E+00
ElementMetric: Node: 5 Coord:   5.000E-01   0.000E+00   0.000E+00
ElementMetric: Node: 6 Coord:   5.000E-01   5.000E-01   0.000E+00
ElementMetric: Node: 7 Coord:   0.000E+00   5.000E-01   0.000E+00
ElementMetric: Node: 8 Coord:   0.000E+00   0.000E+00   5.000E-01
ElementMetric: Node: 9 Coord:   5.000E-01   0.000E+00   5.000E-01
ElementMetric: Node: 10 Coord:   0.000E+00   5.000E-01   5.000E-01
ElementMetric: Node: 2 dCoord:   1.000E+00   0.000E+00   0.000E+00
ElementMetric: Node: 3 dCoord:   0.000E+00   1.000E+00   0.000E+00
ElementMetric: Node: 4 dCoord:   0.000E+00   0.000E+00   1.000E+00
ElementMetric: Node: 5 dCoord:   5.000E-01   0.000E+00   0.000E+00
ElementMetric: Node: 6 dCoord:   5.000E-01   5.000E-01   0.000E+00
ElementMetric: Node: 7 dCoord:   0.000E+00   5.000E-01   0.000E+00
ElementMetric: Node: 8 dCoord:   0.000E+00   0.000E+00   5.000E-01
ElementMetric: Node: 9 dCoord:   5.000E-01   0.000E+00   5.000E-01
ElementMetric: Node: 10 dCoord:   0.000E+00   5.000E-01   5.000E-01
ElementMetric: Element dim larger than meshdim: 3 vs. 0
ERROR:: ElementMetric: Degenerate 3D element: -1
ElementMetric: Body Id: 0 DetG:   0.000E+00
ElementMetric: Node: 1 Coord:   0.000E+00   0.000E+00   0.000E+00
ElementMetric: Node: 2 Coord:   1.000E+00   0.000E+00   0.000E+00
ElementMetric: Node: 3 Coord:   0.000E+00   1.000E+00   0.000E+00
ElementMetric: Node: 4 Coord:   0.000E+00   0.000E+00   1.000E+00
ElementMetric: Node: 5 Coord:   5.000E-01   0.000E+00   0.000E+00
ElementMetric: Node: 6 Coord:   5.000E-01   5.000E-01   0.000E+00
ElementMetric: Node: 7 Coord:   0.000E+00   5.000E-01   0.000E+00
ElementMetric: Node: 8 Coord:   0.000E+00   0.000E+00   5.000E-01
ElementMetric: Node: 9 Coord:   5.000E-01   0.000E+00   5.000E-01
ElementMetric: Node: 10 Coord:   0.000E+00   5.000E-01   5.000E-01
ElementMetric: Node: 2 dCoord:   1.000E+00   0.000E+00   0.000E+00
ElementMetric: Node: 3 dCoord:   0.000E+00   1.000E+00   0.000E+00
ElementMetric: Node: 4 dCoord:   0.000E+00   0.000E+00   1.000E+00
ElementMetric: Node: 5 dCoord:   5.000E-01   0.000E+00   0.000E+00
ElementMetric: Node: 6 dCoord:   5.000E-01   5.000E-01   0.000E+00
ElementMetric: Node: 7 dCoord:   0.000E+00   5.000E-01   0.000E+00
ElementMetric: Node: 8 dCoord:   0.000E+00   0.000E+00   5.000E-01
ElementMetric: Node: 9 dCoord:   5.000E-01   0.000E+00   5.000E-01
ElementMetric: Node: 10 dCoord:   0.000E+00   5.000E-01   5.000E-01
ElementMetric: Element dim larger than meshdim: 3 vs. 0
ERROR:: ElementMetric: Degenerate 3D element: -1
ElementMetric: Body Id: 0 DetG:   0.000E+00
ElementMetric: Node: 1 Coord:   0.000E+00   0.000E+00   0.000E+00
ElementMetric: Node: 2 Coord:   1.000E+00   0.000E+00   0.000E+00
ElementMetric: Node: 3 Coord:   0.000E+00   1.000E+00   0.000E+00
ElementMetric: Node: 4 Coord:   0.000E+00   0.000E+00   1.000E+00
ElementMetric: Node: 5 Coord:   5.000E-01   0.000E+00   0.000E+00
ElementMetric: Node: 6 Coord:   5.000E-01   5.000E-01   0.000E+00
ElementMetric: Node: 7 Coord:   0.000E+00   5.000E-01   0.000E+00
ElementMetric: Node: 8 Coord:   0.000E+00   0.000E+00   5.000E-01
ElementMetric: Node: 9 Coord:   5.000E-01   0.000E+00   5.000E-01
ElementMetric: Node: 10 Coord:   0.000E+00   5.000E-01   5.000E-01
ElementMetric: Node: 2 dCoord:   1.000E+00   0.000E+00   0.000E+00
ElementMetric: Node: 3 dCoord:   0.000E+00   1.000E+00   0.000E+00
ElementMetric: Node: 4 dCoord:   0.000E+00   0.000E+00   1.000E+00
ElementMetric: Node: 5 dCoord:   5.000E-01   0.000E+00   0.000E+00
ElementMetric: Node: 6 dCoord:   5.000E-01   5.000E-01   0.000E+00
ElementMetric: Node: 7 dCoord:   0.000E+00   5.000E-01   0.000E+00
ElementMetric: Node: 8 dCoord:   0.000E+00   0.000E+00   5.000E-01
ElementMetric: Node: 9 dCoord:   5.000E-01   0.000E+00   5.000E-01
ElementMetric: Node: 10 dCoord:   0.000E+00   5.000E-01   5.000E-01
ElementMetric: Element dim larger than meshdim: 3 vs. 0
ERROR:: ElementMetric: Degenerate 3D element: -1
ElementMetric: Body Id: 0 DetG:   0.000E+00
ElementMetric: Node: 1 Coord:   0.000E+00   0.000E+00   0.000E+00
ElementMetric: Node: 2 Coord:   1.000E+00   0.000E+00   0.000E+00
ElementMetric: Node: 3 Coord:   0.000E+00   1.000E+00   0.000E+00
ElementMetric: Node: 4 Coord:   0.000E+00   0.000E+00   1.000E+00
ElementMetric: Node: 5 Coord:   5.000E-01   0.000E+00   0.000E+00
ElementMetric: Node: 6 Coord:   5.000E-01   5.000E-01   0.000E+00
ElementMetric: Node: 7 Coord:   0.000E+00   5.000E-01   0.000E+00
ElementMetric: Node: 8 Coord:   0.000E+00   0.000E+00   5.000E-01
ElementMetric: Node: 9 Coord:   5.000E-01   0.000E+00   5.000E-01
ElementMetric: Node: 10 Coord:   0.000E+00   5.000E-01   5.000E-01
ElementMetric: Node: 2 dCoord:   1.000E+00   0.000E+00   0.000E+00
ElementMetric: Node: 3 dCoord:   0.000E+00   1.000E+00   0.000E+00
ElementMetric: Node: 4 dCoord:   0.000E+00   0.000E+00   1.000E+00
ElementMetric: Node: 5 dCoord:   5.000E-01   0.000E+00   0.000E+00
ElementMetric: Node: 6 dCoord:   5.000E-01   5.000E-01   0.000E+00
ElementMetric: Node: 7 dCoord:   0.000E+00   5.000E-01   0.000E+00
ElementMetric: Node: 8 dCoord:   0.000E+00   0.000E+00   5.000E-01
ElementMetric: Node: 9 dCoord:   5.000E-01   0.000E+00   5.000E-01
ElementMetric: Node: 10 dCoord:   0.000E+00   5.000E-01   5.000E-01
ElementMetric: Element dim larger than meshdim: 3 vs. 0
ERROR:: ElementMetric: Degenerate 3D element: -1
ElementMetric: Body Id: 0 DetG:   0.000E+00
ElementMetric: Node: 1 Coord:   0.000E+00   0.000E+00   0.000E+00
ElementMetric: Node: 2 Coord:   1.000E+00   0.000E+00   0.000E+00
ElementMetric: Node: 3 Coord:   0.000E+00   1.000E+00   0.000E+00
ElementMetric: Node: 4 Coord:   0.000E+00   0.000E+00   1.000E+00
ElementMetric: Node: 5 Coord:   5.000E-01   0.000E+00   0.000E+00
ElementMetric: Node: 6 Coord:   5.000E-01   5.000E-01   0.000E+00
ElementMetric: Node: 7 Coord:   0.000E+00   5.000E-01   0.000E+00
ElementMetric: Node: 8 Coord:   0.000E+00   0.000E+00   5.000E-01
ElementMetric: Node: 9 Coord:   5.000E-01   0.000E+00   5.000E-01
ElementMetric: Node: 10 Coord:   0.000E+00   5.000E-01   5.000E-01
ElementMetric: Node: 2 dCoord:   1.000E+00   0.000E+00   0.000E+00
ElementMetric: Node: 3 dCoord:   0.000E+00   1.000E+00   0.000E+00
ElementMetric: Node: 4 dCoord:   0.000E+00   0.000E+00   1.000E+00
ElementMetric: Node: 5 dCoord:   5.000E-01   0.000E+00   0.000E+00
ElementMetric: Node: 6 dCoord:   5.000E-01   5.000E-01   0.000E+00
ElementMetric: Node: 7 dCoord:   0.000E+00   5.000E-01   0.000E+00
ElementMetric: Node: 8 dCoord:   0.000E+00   0.000E+00   5.000E-01
ElementMetric: Node: 9 dCoord:   5.000E-01   0.000E+00   5.000E-01
ElementMetric: Node: 10 dCoord:   0.000E+00   5.000E-01   5.000E-01
ElementMetric: Element dim larger than meshdim: 3 vs. 0
ERROR:: ElementMetric: Degenerate 3D element: -1
ElementMetric: Body Id: 0 DetG:   0.000E+00
ElementMetric: Node: 1 Coord:   0.000E+00   0.000E+00   0.000E+00
ElementMetric: Node: 2 Coord:   1.000E+00   0.000E+00   0.000E+00
ElementMetric: Node: 3 Coord:   0.000E+00   1.000E+00   0.000E+00
ElementMetric: Node: 4 Coord:   0.000E+00   0.000E+00   1.000E+00
ElementMetric: Node: 5 Coord:   5.000E-01   0.000E+00   0.000E+00
ElementMetric: Node: 6 Coord:   5.000E-01   5.000E-01   0.000E+00
ElementMetric: Node: 7 Coord:   0.000E+00   5.000E-01   0.000E+00
ElementMetric: Node: 8 Coord:   0.000E+00   0.000E+00   5.000E-01
ElementMetric: Node: 9 Coord:   5.000E-01   0.000E+00   5.000E-01
ElementMetric: Node: 10 Coord:   0.000E+00   5.000E-01   5.000E-01
ElementMetric: Node: 2 dCoord:   1.000E+00   0.000E+00   0.000E+00
ElementMetric: Node: 3 dCoord:   0.000E+00   1.000E+00   0.000E+00
ElementMetric: Node: 4 dCoord:   0.000E+00   0.000E+00   1.000E+00
ElementMetric: Node: 5 dCoord:   5.000E-01   0.000E+00   0.000E+00
ElementMetric: Node: 6 dCoord:   5.000E-01   5.000E-01   0.000E+00
ElementMetric: Node: 7 dCoord:   0.000E+00   5.000E-01   0.000E+00
ElementMetric: Node: 8 dCoord:   0.000E+00   0.000E+00   5.000E-01
ElementMetric: Node: 9 dCoord:   5.000E-01   0.000E+00   5.000E-01
ElementMetric: Node: 10 dCoord:   0.000E+00   5.000E-01   5.000E-01
ElementMetric: Element dim larger than meshdim: 3 vs. 0
ERROR:: ElementMetric: Degenerate 3D element: -1
ElementMetric: Body Id: 0 DetG:   0.000E+00
ElementMetric: Node: 1 Coord:   0.000E+00   0.000E+00   0.000E+00
ElementMetric: Node: 2 Coord:   1.000E+00   0.000E+00   0.000E+00
ElementMetric: Node: 3 Coord:   0.000E+00   1.000E+00   0.000E+00
ElementMetric: Node: 4 Coord:   0.000E+00   0.000E+00   1.000E+00
ElementMetric: Node: 5 Coord:   5.000E-01   0.000E+00   0.000E+00
ElementMetric: Node: 6 Coord:   5.000E-01   5.000E-01   0.000E+00
ElementMetric: Node: 7 Coord:   0.000E+00   5.000E-01   0.000E+00
ElementMetric: Node: 8 Coord:   0.000E+00   0.000E+00   5.000E-01
ElementMetric: Node: 9 Coord:   5.000E-01   0.000E+00   5.000E-01
ElementMetric: Node: 10 Coord:   0.000E+00   5.000E-01   5.000E-01
ElementMetric: Node: 2 dCoord:   1.000E+00   0.000E+00   0.000E+00
ElementMetric: Node: 3 dCoord:   0.000E+00   1.000E+00   0.000E+00
ElementMetric: Node: 4 dCoord:   0.000E+00   0.000E+00   1.000E+00
ElementMetric: Node: 5 dCoord:   5.000E-01   0.000E+00   0.000E+00
ElementMetric: Node: 6 dCoord:   5.000E-01   5.000E-01   0.000E+00
ElementMetric: Node: 7 dCoord:   0.000E+00   5.000E-01   0.000E+00
ElementMetric: Node: 8 dCoord:   0.000E+00   0.000E+00   5.000E-01
ElementMetric: Node: 9 dCoord:   5.000E-01   0.000E+00   5.000E-01
ElementMetric: Node: 10 dCoord:   0.000E+00   5.000E-01   5.000E-01
ElementMetric: Element dim larger than meshdim: 3 vs. 0
ERROR:: ElementMetric: Degenerate 3D element: -1
ElementMetric: Body Id: 0 DetG:   0.000E+00
ElementMetric: Node: 1 Coord:   0.000E+00   0.000E+00   0.000E+00
ElementMetric: Node: 2 Coord:   1.000E+00   0.000E+00   0.000E+00
ElementMetric: Node: 3 Coord:   0.000E+00   1.000E+00   0.000E+00
ElementMetric: Node: 4 Coord:   0.000E+00   0.000E+00   1.000E+00
ElementMetric: Node: 5 Coord:   5.000E-01   0.000E+00   0.000E+00
ElementMetric: Node: 6 Coord:   5.000E-01   5.000E-01   0.000E+00
ElementMetric: Node: 7 Coord:   0.000E+00   5.000E-01   0.000E+00
ElementMetric: Node: 8 Coord:   0.000E+00   0.000E+00   5.000E-01
ElementMetric: Node: 9 Coord:   5.000E-01   0.000E+00   5.000E-01
ElementMetric: Node: 10 Coord:   0.000E+00   5.000E-01   5.000E-01
ElementMetric: Node: 2 dCoord:   1.000E+00   0.000E+00   0.000E+00
ElementMetric: Node: 3 dCoord:   0.000E+00   1.000E+00   0.000E+00
ElementMetric: Node: 4 dCoord:   0.000E+00   0.000E+00   1.000E+00
ElementMetric: Node: 5 dCoord:   5.000E-01   0.000E+00   0.000E+00
ElementMetric: Node: 6 dCoord:   5.000E-01   5.000E-01   0.000E+00
ElementMetric: Node: 7 dCoord:   0.000E+00   5.000E-01   0.000E+00
ElementMetric: Node: 8 dCoord:   0.000E+00   0.000E+00   5.000E-01
ElementMetric: Node: 9 dCoord:   5.000E-01   0.000E+00   5.000E-01
ElementMetric: Node: 10 dCoord:   0.000E+00   5.000E-01   5.000E-01
ElementMetric: Element dim larger than meshdim: 3 vs. 0
ERROR:: ElementMetric: Degenerate 3D element: -1
ElementMetric: Body Id: 0 DetG:   0.000E+00
ElementMetric: Node: 1 Coord:   0.000E+00   0.000E+00   0.000E+00
ElementMetric: Node: 2 Coord:   1.000E+00   0.000E+00   0.000E+00
ElementMetric: Node: 3 Coord:   0.000E+00   1.000E+00   0.000E+00
ElementMetric: Node: 4 Coord:   0.000E+00   0.000E+00   1.000E+00
ElementMetric: Node: 5 Coord:   5.000E-01   0.000E+00   0.000E+00
ElementMetric: Node: 6 Coord:   5.000E-01   5.000E-01   0.000E+00
ElementMetric: Node: 7 Coord:   0.000E+00   5.000E-01   0.000E+00
ElementMetric: Node: 8 Coord:   0.000E+00   0.000E+00   5.000E-01
ElementMetric: Node: 9 Coord:   5.000E-01   0.000E+00   5.000E-01
ElementMetric: Node: 10 Coord:   0.000E+00   5.000E-01   5.000E-01
ElementMetric: Node: 2 dCoord:   1.000E+00   0.000E+00   0.000E+00
ElementMetric: Node: 3 dCoord:   0.000E+00   1.000E+00   0.000E+00
ElementMetric: Node: 4 dCoord:   0.000E+00   0.000E+00   1.000E+00
ElementMetric: Node: 5 dCoord:   5.000E-01   0.000E+00   0.000E+00
ElementMetric: Node: 6 dCoord:   5.000E-01   5.000E-01   0.000E+00
ElementMetric: Node: 7 dCoord:   0.000E+00   5.000E-01   0.000E+00
ElementMetric: Node: 8 dCoord:   0.000E+00   0.000E+00   5.000E-01
ElementMetric: Node: 9 dCoord:   5.000E-01   0.000E+00   5.000E-01
ElementMetric: Node: 10 dCoord:   0.000E+00   5.000E-01   5.000E-01
ElementMetric: Element dim larger than meshdim: 3 vs. 0
ERROR:: ElementMetric: Degenerate 3D element: -1
ElementMetric: Body Id: 0 DetG:   0.000E+00
ElementMetric: Node: 1 Coord:   0.000E+00   0.000E+00   0.000E+00
ElementMetric: Node: 2 Coord:   1.000E+00   0.000E+00   0.000E+00
ElementMetric: Node: 3 Coord:   0.000E+00   1.000E+00   0.000E+00
ElementMetric: Node: 4 Coord:   0.000E+00   0.000E+00   1.000E+00
ElementMetric: Node: 5 Coord:   5.000E-01   0.000E+00   0.000E+00
ElementMetric: Node: 6 Coord:   5.000E-01   5.000E-01   0.000E+00
ElementMetric: Node: 7 Coord:   0.000E+00   5.000E-01   0.000E+00
ElementMetric: Node: 8 Coord:   0.000E+00   0.000E+00   5.000E-01
ElementMetric: Node: 9 Coord:   5.000E-01   0.000E+00   5.000E-01
ElementMetric: Node: 10 Coord:   0.000E+00   5.000E-01   5.000E-01
ElementMetric: Node: 2 dCoord:   1.000E+00   0.000E+00   0.000E+00
ElementMetric: Node: 3 dCoord:   0.000E+00   1.000E+00   0.000E+00
ElementMetric: Node: 4 dCoord:   0.000E+00   0.000E+00   1.000E+00
ElementMetric: Node: 5 dCoord:   5.000E-01   0.000E+00   0.000E+00
ElementMetric: Node: 6 dCoord:   5.000E-01   5.000E-01   0.000E+00
ElementMetric: Node: 7 dCoord:   0.000E+00   5.000E-01   0.000E+00
ElementMetric: Node: 8 dCoord:   0.000E+00   0.000E+00   5.000E-01
ElementMetric: Node: 9 dCoord:   5.000E-01   0.000E+00   5.000E-01
ElementMetric: Node: 10 dCoord:   0.000E+00   5.000E-01   5.000E-01
ElementMetric: Element dim larger than meshdim: 3 vs. 0
ERROR:: ElementMetric: Degenerate 3D element: -1
ElementMetric: Body Id: 0 DetG:   0.000E+00
ElementMetric: Node: 1 Coord:   0.000E+00   0.000E+00   0.000E+00
ElementMetric: Node: 2 Coord:   1.000E+00   0.000E+00   0.000E+00
ElementMetric: Node: 3 Coord:   0.000E+00   1.000E+00   0.000E+00
ElementMetric: Node: 4 Coord:   0.000E+00   0.000E+00   1.000E+00
ElementMetric: Node: 5 Coord:   5.000E-01   0.000E+00   0.000E+00
ElementMetric: Node: 6 Coord:   5.000E-01   5.000E-01   0.000E+00
ElementMetric: Node: 7 Coord:   0.000E+00   5.000E-01   0.000E+00
ElementMetric: Node: 8 Coord:   0.000E+00   0.000E+00   5.000E-01
ElementMetric: Node: 9 Coord:   5.000E-01   0.000E+00   5.000E-01
ElementMetric: Node: 10 Coord:   0.000E+00   5.000E-01   5.000E-01
ElementMetric: Node: 2 dCoord:   1.000E+00   0.000E+00   0.000E+00
ElementMetric: Node: 3 dCoord:   0.000E+00   1.000E+00   0.000E+00
ElementMetric: Node: 4 dCoord:   0.000E+00   0.000E+00   1.000E+00
ElementMetric: Node: 5 dCoord:   5.000E-01   0.000E+00   0.000E+00
ElementMetric: Node: 6 dCoord:   5.000E-01   5.000E-01   0.000E+00
ElementMetric: Node: 7 dCoord:   0.000E+00   5.000E-01   0.000E+00
ElementMetric: Node: 8 dCoord:   0.000E+00   0.000E+00   5.000E-01
ElementMetric: Node: 9 dCoord:   5.000E-01   0.000E+00   5.000E-01
ElementMetric: Node: 10 dCoord:   0.000E+00   5.000E-01   5.000E-01
ElementMetric: Element dim larger than meshdim: 3 vs. 0
ERROR:: ElementMetric: Degenerate 3D element: -1
ElementMetric: Body Id: 0 DetG:   0.000E+00
ElementMetric: Node: 1 Coord:   0.000E+00   0.000E+00   0.000E+00
ElementMetric: Node: 2 Coord:   1.000E+00   0.000E+00   0.000E+00
ElementMetric: Node: 3 Coord:   0.000E+00   1.000E+00   0.000E+00
ElementMetric: Node: 4 Coord:   0.000E+00   0.000E+00   1.000E+00
ElementMetric: Node: 5 Coord:   5.000E-01   0.000E+00   0.000E+00
ElementMetric: Node: 6 Coord:   5.000E-01   5.000E-01   0.000E+00
ElementMetric: Node: 7 Coord:   0.000E+00   5.000E-01   0.000E+00
ElementMetric: Node: 8 Coord:   0.000E+00   0.000E+00   5.000E-01
ElementMetric: Node: 9 Coord:   5.000E-01   0.000E+00   5.000E-01
ElementMetric: Node: 10 Coord:   0.000E+00   5.000E-01   5.000E-01
ElementMetric: Node: 2 dCoord:   1.000E+00   0.000E+00   0.000E+00
ElementMetric: Node: 3 dCoord:   0.000E+00   1.000E+00   0.000E+00
ElementMetric: Node: 4 dCoord:   0.000E+00   0.000E+00   1.000E+00
ElementMetric: Node: 5 dCoord:   5.000E-01   0.000E+00   0.000E+00
ElementMetric: Node: 6 dCoord:   5.000E-01   5.000E-01   0.000E+00
ElementMetric: Node: 7 dCoord:   0.000E+00   5.000E-01   0.000E+00
ElementMetric: Node: 8 dCoord:   0.000E+00   0.000E+00   5.000E-01
ElementMetric: Node: 9 dCoord:   5.000E-01   0.000E+00   5.000E-01
ElementMetric: Node: 10 dCoord:   0.000E+00   5.000E-01   5.000E-01
ElementMetric: Element dim larger than meshdim: 3 vs. 0
ERROR:: ElementMetric: Degenerate 3D element: -1
ElementMetric: Body Id: 0 DetG:   0.000E+00
ElementMetric: Node: 1 Coord:   0.000E+00   0.000E+00   0.000E+00
ElementMetric: Node: 2 Coord:   1.000E+00   0.000E+00   0.000E+00
ElementMetric: Node: 3 Coord:   0.000E+00   1.000E+00   0.000E+00
ElementMetric: Node: 4 Coord:   0.000E+00   0.000E+00   1.000E+00
ElementMetric: Node: 5 Coord:   5.000E-01   0.000E+00   0.000E+00
ElementMetric: Node: 6 Coord:   5.000E-01   5.000E-01   0.000E+00
ElementMetric: Node: 7 Coord:   0.000E+00   5.000E-01   0.000E+00
ElementMetric: Node: 8 Coord:   0.000E+00   0.000E+00   5.000E-01
ElementMetric: Node: 9 Coord:   5.000E-01   0.000E+00   5.000E-01
ElementMetric: Node: 10 Coord:   0.000E+00   5.000E-01   5.000E-01
ElementMetric: Node: 2 dCoord:   1.000E+00   0.000E+00   0.000E+00
ElementMetric: Node: 3 dCoord:   0.000E+00   1.000E+00   0.000E+00
ElementMetric: Node: 4 dCoord:   0.000E+00   0.000E+00   1.000E+00
ElementMetric: Node: 5 dCoord:   5.000E-01   0.000E+00   0.000E+00
ElementMetric: Node: 6 dCoord:   5.000E-01   5.000E-01   0.000E+00
ElementMetric: Node: 7 dCoord:   0.000E+00   5.000E-01   0.000E+00
ElementMetric: Node: 8 dCoord:   0.000E+00   0.000E+00   5.000E-01
ElementMetric: Node: 9 dCoord:   5.000E-01   0.000E+00   5.000E-01
ElementMetric: Node: 10 dCoord:   0.000E+00   5.000E-01   5.000E-01
ElementMetric: Element dim larger than meshdim: 3 vs. 0
ERROR:: ElementMetric: Degenerate 3D element: -1
ElementMetric: Body Id: 0 DetG:   0.000E+00
ElementMetric: Node: 1 Coord:   0.000E+00   0.000E+00   0.000E+00
ElementMetric: Node: 2 Coord:   1.000E+00   0.000E+00   0.000E+00
ElementMetric: Node: 3 Coord:   0.000E+00   1.000E+00   0.000E+00
ElementMetric: Node: 4 Coord:   0.000E+00   0.000E+00   1.000E+00
ElementMetric: Node: 5 Coord:   5.000E-01   0.000E+00   0.000E+00
ElementMetric: Node: 6 Coord:   5.000E-01   5.000E-01   0.000E+00
ElementMetric: Node: 7 Coord:   0.000E+00   5.000E-01   0.000E+00
ElementMetric: Node: 8 Coord:   0.000E+00   0.000E+00   5.000E-01
ElementMetric: Node: 9 Coord:   5.000E-01   0.000E+00   5.000E-01
ElementMetric: Node: 10 Coord:   0.000E+00   5.000E-01   5.000E-01
ElementMetric: Node: 2 dCoord:   1.000E+00   0.000E+00   0.000E+00
ElementMetric: Node: 3 dCoord:   0.000E+00   1.000E+00   0.000E+00
ElementMetric: Node: 4 dCoord:   0.000E+00   0.000E+00   1.000E+00
ElementMetric: Node: 5 dCoord:   5.000E-01   0.000E+00   0.000E+00
ElementMetric: Node: 6 dCoord:   5.000E-01   5.000E-01   0.000E+00
ElementMetric: Node: 7 dCoord:   0.000E+00   5.000E-01   0.000E+00
ElementMetric: Node: 8 dCoord:   0.000E+00   0.000E+00   5.000E-01
ElementMetric: Node: 9 dCoord:   5.000E-01   0.000E+00   5.000E-01
ElementMetric: Node: 10 dCoord:   0.000E+00   5.000E-01   5.000E-01
ElementMetric: Element dim larger than meshdim: 3 vs. 0
ERROR:: ElementMetric: Degenerate 3D element: -1
ElementMetric: Body Id: 0 DetG:   0.000E+00
ElementMetric: Node: 1 Coord:   0.000E+00   0.000E+00   0.000E+00
ElementMetric: Node: 2 Coord:   1.000E+00   0.000E+00   0.000E+00
ElementMetric: Node: 3 Coord:   0.000E+00   1.000E+00   0.000E+00
ElementMetric: Node: 4 Coord:   0.000E+00   0.000E+00   1.000E+00
ElementMetric: Node: 5 Coord:   5.000E-01   0.000E+00   0.000E+00
ElementMetric: Node: 6 Coord:   5.000E-01   5.000E-01   0.000E+00
ElementMetric: Node: 7 Coord:   0.000E+00   5.000E-01   0.000E+00
ElementMetric: Node: 8 Coord:   0.000E+00   0.000E+00   5.000E-01
ElementMetric: Node: 9 Coord:   5.000E-01   0.000E+00   5.000E-01
ElementMetric: Node: 10 Coord:   0.000E+00   5.000E-01   5.000E-01
ElementMetric: Node: 2 dCoord:   1.000E+00   0.000E+00   0.000E+00
ElementMetric: Node: 3 dCoord:   0.000E+00   1.000E+00   0.000E+00
ElementMetric: Node: 4 dCoord:   0.000E+00   0.000E+00   1.000E+00
ElementMetric: Node: 5 dCoord:   5.000E-01   0.000E+00   0.000E+00
ElementMetric: Node: 6 dCoord:   5.000E-01   5.000E-01   0.000E+00
ElementMetric: Node: 7 dCoord:   0.000E+00   5.000E-01   0.000E+00
ElementMetric: Node: 8 dCoord:   0.000E+00   0.000E+00   5.000E-01
ElementMetric: Node: 9 dCoord:   5.000E-01   0.000E+00   5.000E-01
ElementMetric: Node: 10 dCoord:   0.000E+00   5.000E-01   5.000E-01
ElementMetric: Element dim larger than meshdim: 3 vs. 0
ERROR:: ElementMetric: Degenerate 3D element: -1
ElementMetric: Body Id: 0 DetG:   0.000E+00
ElementMetric: Node: 1 Coord:   0.000E+00   0.000E+00   0.000E+00
ElementMetric: Node: 2 Coord:   1.000E+00   0.000E+00   0.000E+00
ElementMetric: Node: 3 Coord:   0.000E+00   1.000E+00   0.000E+00
ElementMetric: Node: 4 Coord:   0.000E+00   0.000E+00   1.000E+00
ElementMetric: Node: 5 Coord:   5.000E-01   0.000E+00   0.000E+00
ElementMetric: Node: 6 Coord:   5.000E-01   5.000E-01   0.000E+00
ElementMetric: Node: 7 Coord:   0.000E+00   5.000E-01   0.000E+00
ElementMetric: Node: 8 Coord:   0.000E+00   0.000E+00   5.000E-01
ElementMetric: Node: 9 Coord:   5.000E-01   0.000E+00   5.000E-01
ElementMetric: Node: 10 Coord:   0.000E+00   5.000E-01   5.000E-01
ElementMetric: Node: 2 dCoord:   1.000E+00   0.000E+00   0.000E+00
ElementMetric: Node: 3 dCoord:   0.000E+00   1.000E+00   0.000E+00
ElementMetric: Node: 4 dCoord:   0.000E+00   0.000E+00   1.000E+00
ElementMetric: Node: 5 dCoord:   5.000E-01   0.000E+00   0.000E+00
ElementMetric: Node: 6 dCoord:   5.000E-01   5.000E-01   0.000E+00
ElementMetric: Node: 7 dCoord:   0.000E+00   5.000E-01   0.000E+00
ElementMetric: Node: 8 dCoord:   0.000E+00   0.000E+00   5.000E-01
ElementMetric: Node: 9 dCoord:   5.000E-01   0.000E+00   5.000E-01
ElementMetric: Node: 10 dCoord:   0.000E+00   5.000E-01   5.000E-01
ElementMetric: Element dim larger than meshdim: 3 vs. 0
ERROR:: ElementMetric: Degenerate 3D element: -1
ElementMetric: Body Id: 0 DetG:   0.000E+00
ElementMetric: Node: 1 Coord:   0.000E+00   0.000E+00   0.000E+00
ElementMetric: Node: 2 Coord:   1.000E+00   0.000E+00   0.000E+00
ElementMetric: Node: 3 Coord:   0.000E+00   1.000E+00   0.000E+00
ElementMetric: Node: 4 Coord:   0.000E+00   0.000E+00   1.000E+00
ElementMetric: Node: 5 Coord:   5.000E-01   0.000E+00   0.000E+00
ElementMetric: Node: 6 Coord:   5.000E-01   5.000E-01   0.000E+00
ElementMetric: Node: 7 Coord:   0.000E+00   5.000E-01   0.000E+00
ElementMetric: Node: 8 Coord:   0.000E+00   0.000E+00   5.000E-01
ElementMetric: Node: 9 Coord:   5.000E-01   0.000E+00   5.000E-01
ElementMetric: Node: 10 Coord:   0.000E+00   5.000E-01   5.000E-01
ElementMetric: Node: 2 dCoord:   1.000E+00   0.000E+00   0.000E+00
ElementMetric: Node: 3 dCoord:   0.000E+00   1.000E+00   0.000E+00
ElementMetric: Node: 4 dCoord:   0.000E+00   0.000E+00   1.000E+00
ElementMetric: Node: 5 dCoord:   5.000E-01   0.000E+00   0.000E+00
ElementMetric: Node: 6 dCoord:   5.000E-01   5.000E-01   0.000E+00
ElementMetric: Node: 7 dCoord:   0.000E+00   5.000E-01   0.000E+00
ElementMetric: Node: 8 dCoord:   0.000E+00   0.000E+00   5.000E-01
ElementMetric: Node: 9 dCoord:   5.000E-01   0.000E+00   5.000E-01
ElementMetric: Node: 10 dCoord:   0.000E+00   5.000E-01   5.000E-01
ElementMetric: Element dim larger than meshdim: 3 vs. 0
ERROR:: ElementMetric: Degenerate 3D element: -1
ElementMetric: Body Id: 0 DetG:   0.000E+00
ElementMetric: Node: 1 Coord:   0.000E+00   0.000E+00   0.000E+00
ElementMetric: Node: 2 Coord:   1.000E+00   0.000E+00   0.000E+00
ElementMetric: Node: 3 Coord:   0.000E+00   1.000E+00   0.000E+00
ElementMetric: Node: 4 Coord:   0.000E+00   0.000E+00   1.000E+00
ElementMetric: Node: 5 Coord:   5.000E-01   0.000E+00   0.000E+00
ElementMetric: Node: 6 Coord:   5.000E-01   5.000E-01   0.000E+00
ElementMetric: Node: 7 Coord:   0.000E+00   5.000E-01   0.000E+00
ElementMetric: Node: 8 Coord:   0.000E+00   0.000E+00   5.000E-01
ElementMetric: Node: 9 Coord:   5.000E-01   0.000E+00   5.000E-01
ElementMetric: Node: 10 Coord:   0.000E+00   5.000E-01   5.000E-01
ElementMetric: Node: 2 dCoord:   1.000E+00   0.000E+00   0.000E+00
ElementMetric: Node: 3 dCoord:   0.000E+00   1.000E+00   0.000E+00
ElementMetric: Node: 4 dCoord:   0.000E+00   0.000E+00   1.000E+00
ElementMetric: Node: 5 dCoord:   5.000E-01   0.000E+00   0.000E+00
ElementMetric: Node: 6 dCoord:   5.000E-01   5.000E-01   0.000E+00
ElementMetric: Node: 7 dCoord:   0.000E+00   5.000E-01   0.000E+00
ElementMetric: Node: 8 dCoord:   0.000E+00   0.000E+00   5.000E-01
ElementMetric: Node: 9 dCoord:   5.000E-01   0.000E+00   5.000E-01
ElementMetric: Node: 10 dCoord:   0.000E+00   5.000E-01   5.000E-01
ElementMetric: Element dim larger than meshdim: 3 vs. 0
ERROR:: ElementMetric: Degenerate 3D element: -1
ElementMetric: Body Id: 0 DetG:   0.000E+00
ElementMetric: Node: 1 Coord:   0.000E+00   0.000E+00   0.000E+00
ElementMetric: Node: 2 Coord:   1.000E+00   0.000E+00   0.000E+00
ElementMetric: Node: 3 Coord:   0.000E+00   1.000E+00   0.000E+00
ElementMetric: Node: 4 Coord:   0.000E+00   0.000E+00   1.000E+00
ElementMetric: Node: 5 Coord:   5.000E-01   0.000E+00   0.000E+00
ElementMetric: Node: 6 Coord:   5.000E-01   5.000E-01   0.000E+00
ElementMetric: Node: 7 Coord:   0.000E+00   5.000E-01   0.000E+00
ElementMetric: Node: 8 Coord:   0.000E+00   0.000E+00   5.000E-01
ElementMetric: Node: 9 Coord:   5.000E-01   0.000E+00   5.000E-01
ElementMetric: Node: 10 Coord:   0.000E+00   5.000E-01   5.000E-01
ElementMetric: Node: 2 dCoord:   1.000E+00   0.000E+00   0.000E+00
ElementMetric: Node: 3 dCoord:   0.000E+00   1.000E+00   0.000E+00
ElementMetric: Node: 4 dCoord:   0.000E+00   0.000E+00   1.000E+00
ElementMetric: Node: 5 dCoord:   5.000E-01   0.000E+00   0.000E+00
ElementMetric: Node: 6 dCoord:   5.000E-01   5.000E-01   0.000E+00
ElementMetric: Node: 7 dCoord:   0.000E+00   5.000E-01   0.000E+00
ElementMetric: Node: 8 dCoord:   0.000E+00   0.000E+00   5.000E-01
ElementMetric: Node: 9 dCoord:   5.000E-01   0.000E+00   5.000E-01
ElementMetric: Node: 10 dCoord:   0.000E+00   5.000E-01   5.000E-01
ElementMetric: Element dim larger than meshdim: 3 vs. 0
ERROR:: ElementMetric: Degenerate 3D element: -1
ElementMetric: Body Id: 0 DetG:   0.000E+00
ElementMetric: Node: 1 Coord:   0.000E+00   0.000E+00   0.000E+00
ElementMetric: Node: 2 Coord:   1.000E+00   0.000E+00   0.000E+00
ElementMetric: Node: 3 Coord:   0.000E+00   1.000E+00   0.000E+00
ElementMetric: Node: 4 Coord:   0.000E+00   0.000E+00   1.000E+00
ElementMetric: Node: 5 Coord:   5.000E-01   0.000E+00   0.000E+00
ElementMetric: Node: 6 Coord:   5.000E-01   5.000E-01   0.000E+00
ElementMetric: Node: 7 Coord:   0.000E+00   5.000E-01   0.000E+00
ElementMetric: Node: 8 Coord:   0.000E+00   0.000E+00   5.000E-01
ElementMetric: Node: 9 Coord:   5.000E-01   0.000E+00   5.000E-01
ElementMetric: Node: 10 Coord:   0.000E+00   5.000E-01   5.000E-01
ElementMetric: Node: 2 dCoord:   1.000E+00   0.000E+00   0.000E+00
ElementMetric: Node: 3 dCoord:   0.000E+00   1.000E+00   0.000E+00
ElementMetric: Node: 4 dCoord:   0.000E+00   0.000E+00   1.000E+00
ElementMetric: Node: 5 dCoord:   5.000E-01   0.000E+00   0.000E+00
ElementMetric: Node: 6 dCoord:   5.000E-01   5.000E-01   0.000E+00
ElementMetric: Node: 7 dCoord:   0.000E+00   5.000E-01   0.000E+00
ElementMetric: Node: 8 dCoord:   0.000E+00   0.000E+00   5.000E-01
ElementMetric: Node: 9 dCoord:   5.000E-01   0.000E+00   5.000E-01
ElementMetric: Node: 10 dCoord:   0.000E+00   5.000E-01   5.000E-01
ElementMetric: Element dim larger than meshdim: 3 vs. 0
ERROR:: ElementMetric: Degenerate 3D element: -1
ElementMetric: Body Id: 0 DetG:   0.000E+00
ElementMetric: Node: 1 Coord:   0.000E+00   0.000E+00   0.000E+00
ElementMetric: Node: 2 Coord:   1.000E+00   0.000E+00   0.000E+00
ElementMetric: Node: 3 Coord:   0.000E+00   1.000E+00   0.000E+00
ElementMetric: Node: 4 Coord:   0.000E+00   0.000E+00   1.000E+00
ElementMetric: Node: 5 Coord:   5.000E-01   0.000E+00   0.000E+00
ElementMetric: Node: 6 Coord:   5.000E-01   5.000E-01   0.000E+00
ElementMetric: Node: 7 Coord:   0.000E+00   5.000E-01   0.000E+00
ElementMetric: Node: 8 Coord:   0.000E+00   0.000E+00   5.000E-01
ElementMetric: Node: 9 Coord:   5.000E-01   0.000E+00   5.000E-01
ElementMetric: Node: 10 Coord:   0.000E+00   5.000E-01   5.000E-01
ElementMetric: Node: 2 dCoord:   1.000E+00   0.000E+00   0.000E+00
ElementMetric: Node: 3 dCoord:   0.000E+00   1.000E+00   0.000E+00
ElementMetric: Node: 4 dCoord:   0.000E+00   0.000E+00   1.000E+00
ElementMetric: Node: 5 dCoord:   5.000E-01   0.000E+00   0.000E+00
ElementMetric: Node: 6 dCoord:   5.000E-01   5.000E-01   0.000E+00
ElementMetric: Node: 7 dCoord:   0.000E+00   5.000E-01   0.000E+00
ElementMetric: Node: 8 dCoord:   0.000E+00   0.000E+00   5.000E-01
ElementMetric: Node: 9 dCoord:   5.000E-01   0.000E+00   5.000E-01
ElementMetric: Node: 10 dCoord:   0.000E+00   5.000E-01   5.000E-01
ElementMetric: Element dim larger than meshdim: 3 vs. 0
ERROR:: ElementMetric: Degenerate 3D element: -1
ElementMetric: Body Id: 0 DetG:   0.000E+00
ElementMetric: Node: 1 Coord:   0.000E+00   0.000E+00   0.000E+00
ElementMetric: Node: 2 Coord:   1.000E+00   0.000E+00   0.000E+00
ElementMetric: Node: 3 Coord:   0.000E+00   1.000E+00   0.000E+00
ElementMetric: Node: 4 Coord:   0.000E+00   0.000E+00   1.000E+00
ElementMetric: Node: 5 Coord:   5.000E-01   0.000E+00   0.000E+00
ElementMetric: Node: 6 Coord:   5.000E-01   5.000E-01   0.000E+00
ElementMetric: Node: 7 Coord:   0.000E+00   5.000E-01   0.000E+00
ElementMetric: Node: 8 Coord:   0.000E+00   0.000E+00   5.000E-01
ElementMetric: Node: 9 Coord:   5.000E-01   0.000E+00   5.000E-01
ElementMetric: Node: 10 Coord:   0.000E+00   5.000E-01   5.000E-01
ElementMetric: Node: 2 dCoord:   1.000E+00   0.000E+00   0.000E+00
ElementMetric: Node: 3 dCoord:   0.000E+00   1.000E+00   0.000E+00
ElementMetric: Node: 4 dCoord:   0.000E+00   0.000E+00   1.000E+00
ElementMetric: Node: 5 dCoord:   5.000E-01   0.000E+00   0.000E+00
ElementMetric: Node: 6 dCoord:   5.000E-01   5.000E-01   0.000E+00
ElementMetric: Node: 7 dCoord:   0.000E+00   5.000E-01   0.000E+00
ElementMetric: Node: 8 dCoord:   0.000E+00   0.000E+00   5.000E-01
ElementMetric: Node: 9 dCoord:   5.000E-01   0.000E+00   5.000E-01
ElementMetric: Node: 10 dCoord:   0.000E+00   5.000E-01   5.000E-01
ElementMetric: Element dim larger than meshdim: 3 vs. 0
ERROR:: ElementMetric: Degenerate 3D element: -1
ElementMetric: Body Id: 0 DetG:   0.000E+00
ElementMetric: Node: 1 Coord:   0.000E+00   0.000E+00   0.000E+00
ElementMetric: Node: 2 Coord:   1.000E+00   0.000E+00   0.000E+00
ElementMetric: Node: 3 Coord:   0.000E+00   1.000E+00   0.000E+00
ElementMetric: Node: 4 Coord:   0.000E+00   0.000E+00   1.000E+00
ElementMetric: Node: 5 Coord:   5.000E-01   0.000E+00   0.000E+00
ElementMetric: Node: 6 Coord:   5.000E-01   5.000E-01   0.000E+00
ElementMetric: Node: 7 Coord:   0.000E+00   5.000E-01   0.000E+00
ElementMetric: Node: 8 Coord:   0.000E+00   0.000E+00   5.000E-01
ElementMetric: Node: 9 Coord:   5.000E-01   0.000E+00   5.000E-01
ElementMetric: Node: 10 Coord:   0.000E+00   5.000E-01   5.000E-01
ElementMetric: Node: 2 dCoord:   1.000E+00   0.000E+00   0.000E+00
ElementMetric: Node: 3 dCoord:   0.000E+00   1.000E+00   0.000E+00
ElementMetric: Node: 4 dCoord:   0.000E+00   0.000E+00   1.000E+00
ElementMetric: Node: 5 dCoord:   5.000E-01   0.000E+00   0.000E+00
ElementMetric: Node: 6 dCoord:   5.000E-01   5.000E-01   0.000E+00
ElementMetric: Node: 7 dCoord:   0.000E+00   5.000E-01   0.000E+00
ElementMetric: Node: 8 dCoord:   0.000E+00   0.000E+00   5.000E-01
ElementMetric: Node: 9 dCoord:   5.000E-01   0.000E+00   5.000E-01
ElementMetric: Node: 10 dCoord:   0.000E+00   5.000E-01   5.000E-01
ElementMetric: Element dim larger than meshdim: 3 vs. 0
ERROR:: ElementMetric: Degenerate 3D element: -1
ElementMetric: Body Id: 0 DetG:   0.000E+00
ElementMetric: Node: 1 Coord:   0.000E+00   0.000E+00   0.000E+00
ElementMetric: Node: 2 Coord:   1.000E+00   0.000E+00   0.000E+00
ElementMetric: Node: 3 Coord:   0.000E+00   1.000E+00   0.000E+00
ElementMetric: Node: 4 Coord:   0.000E+00   0.000E+00   1.000E+00
ElementMetric: Node: 5 Coord:   5.000E-01   0.000E+00   0.000E+00
ElementMetric: Node: 6 Coord:   5.000E-01   5.000E-01   0.000E+00
ElementMetric: Node: 7 Coord:   0.000E+00   5.000E-01   0.000E+00
ElementMetric: Node: 8 Coord:   0.000E+00   0.000E+00   5.000E-01
ElementMetric: Node: 9 Coord:   5.000E-01   0.000E+00   5.000E-01
ElementMetric: Node: 10 Coord:   0.000E+00   5.000E-01   5.000E-01
ElementMetric: Node: 2 dCoord:   1.000E+00   0.000E+00   0.000E+00
ElementMetric: Node: 3 dCoord:   0.000E+00   1.000E+00   0.000E+00
ElementMetric: Node: 4 dCoord:   0.000E+00   0.000E+00   1.000E+00
ElementMetric: Node: 5 dCoord:   5.000E-01   0.000E+00   0.000E+00
ElementMetric: Node: 6 dCoord:   5.000E-01   5.000E-01   0.000E+00
ElementMetric: Node: 7 dCoord:   0.000E+00   5.000E-01   0.000E+00
ElementMetric: Node: 8 dCoord:   0.000E+00   0.000E+00   5.000E-01
ElementMetric: Node: 9 dCoord:   5.000E-01   0.000E+00   5.000E-01
ElementMetric: Node: 10 dCoord:   0.000E+00   5.000E-01   5.000E-01
ElementMetric: Element dim larger than meshdim: 3 vs. 0
ERROR:: ElementMetric: Degenerate 3D element: -1
ElementMetric: Body Id: 0 DetG:   0.000E+00
ElementMetric: Node: 1 Coord:   0.000E+00   0.000E+00   0.000E+00
ElementMetric: Node: 2 Coord:   1.000E+00   0.000E+00   0.000E+00
ElementMetric: Node: 3 Coord:   0.000E+00   1.000E+00   0.000E+00
ElementMetric: Node: 4 Coord:   0.000E+00   0.000E+00   1.000E+00
ElementMetric: Node: 5 Coord:   5.000E-01   0.000E+00   0.000E+00
ElementMetric: Node: 6 Coord:   5.000E-01   5.000E-01   0.000E+00
ElementMetric: Node: 7 Coord:   0.000E+00   5.000E-01   0.000E+00
ElementMetric: Node: 8 Coord:   0.000E+00   0.000E+00   5.000E-01
ElementMetric: Node: 9 Coord:   5.000E-01   0.000E+00   5.000E-01
ElementMetric: Node: 10 Coord:   0.000E+00   5.000E-01   5.000E-01
ElementMetric: Node: 2 dCoord:   1.000E+00   0.000E+00   0.000E+00
ElementMetric: Node: 3 dCoord:   0.000E+00   1.000E+00   0.000E+00
ElementMetric: Node: 4 dCoord:   0.000E+00   0.000E+00   1.000E+00
ElementMetric: Node: 5 dCoord:   5.000E-01   0.000E+00   0.000E+00
ElementMetric: Node: 6 dCoord:   5.000E-01   5.000E-01   0.000E+00
ElementMetric: Node: 7 dCoord:   0.000E+00   5.000E-01   0.000E+00
ElementMetric: Node: 8 dCoord:   0.000E+00   0.000E+00   5.000E-01
ElementMetric: Node: 9 dCoord:   5.000E-01   0.000E+00   5.000E-01
ElementMetric: Node: 10 dCoord:   0.000E+00   5.000E-01   5.000E-01
ElementMetric: Element dim larger than meshdim: 3 vs. 0
ERROR:: ElementMetric: Degenerate 3D element: -1
ElementMetric: Body Id: 0 DetG:   0.000E+00
ElementMetric: Node: 1 Coord:   0.000E+00   0.000E+00   0.000E+00
ElementMetric: Node: 2 Coord:   1.000E+00   0.000E+00   0.000E+00
ElementMetric: Node: 3 Coord:   0.000E+00   1.000E+00   0.000E+00
ElementMetric: Node: 4 Coord:   0.000E+00   0.000E+00   1.000E+00
ElementMetric: Node: 5 Coord:   5.000E-01   0.000E+00   0.000E+00
ElementMetric: Node: 6 Coord:   5.000E-01   5.000E-01   0.000E+00
ElementMetric: Node: 7 Coord:   0.000E+00   5.000E-01   0.000E+00
ElementMetric: Node: 8 Coord:   0.000E+00   0.000E+00   5.000E-01
ElementMetric: Node: 9 Coord:   5.000E-01   0.000E+00   5.000E-01
ElementMetric: Node: 10 Coord:   0.000E+00   5.000E-01   5.000E-01
ElementMetric: Node: 2 dCoord:   1.000E+00   0.000E+00   0.000E+00
ElementMetric: Node: 3 dCoord:   0.000E+00   1.000E+00   0.000E+00
ElementMetric: Node: 4 dCoord:   0.000E+00   0.000E+00   1.000E+00
ElementMetric: Node: 5 dCoord:   5.000E-01   0.000E+00   0.000E+00
ElementMetric: Node: 6 dCoord:   5.000E-01   5.000E-01   0.000E+00
ElementMetric: Node: 7 dCoord:   0.000E+00   5.000E-01   0.000E+00
ElementMetric: Node: 8 dCoord:   0.000E+00   0.000E+00   5.000E-01
ElementMetric: Node: 9 dCoord:   5.000E-01   0.000E+00   5.000E-01
ElementMetric: Node: 10 dCoord:   0.000E+00   5.000E-01   5.000E-01
ElementMetric: Element dim larger than meshdim: 3 vs. 0
ERROR:: ElementMetric: Degenerate 3D element: -1
ElementMetric: Body Id: 0 DetG:   0.000E+00
ElementMetric: Node: 1 Coord:   0.000E+00   0.000E+00   0.000E+00
ElementMetric: Node: 2 Coord:   1.000E+00   0.000E+00   0.000E+00
ElementMetric: Node: 3 Coord:   0.000E+00   1.000E+00   0.000E+00
ElementMetric: Node: 4 Coord:   0.000E+00   0.000E+00   1.000E+00
ElementMetric: Node: 5 Coord:   5.000E-01   0.000E+00   0.000E+00
ElementMetric: Node: 6 Coord:   5.000E-01   5.000E-01   0.000E+00
ElementMetric: Node: 7 Coord:   0.000E+00   5.000E-01   0.000E+00
ElementMetric: Node: 8 Coord:   0.000E+00   0.000E+00   5.000E-01
ElementMetric: Node: 9 Coord:   5.000E-01   0.000E+00   5.000E-01
ElementMetric: Node: 10 Coord:   0.000E+00   5.000E-01   5.000E-01
ElementMetric: Node: 2 dCoord:   1.000E+00   0.000E+00   0.000E+00
ElementMetric: Node: 3 dCoord:   0.000E+00   1.000E+00   0.000E+00
ElementMetric: Node: 4 dCoord:   0.000E+00   0.000E+00   1.000E+00
ElementMetric: Node: 5 dCoord:   5.000E-01   0.000E+00   0.000E+00
ElementMetric: Node: 6 dCoord:   5.000E-01   5.000E-01   0.000E+00
ElementMetric: Node: 7 dCoord:   0.000E+00   5.000E-01   0.000E+00
ElementMetric: Node: 8 dCoord:   0.000E+00   0.000E+00   5.000E-01
ElementMetric: Node: 9 dCoord:   5.000E-01   0.000E+00   5.000E-01
ElementMetric: Node: 10 dCoord:   0.000E+00   5.000E-01   5.000E-01
ElementMetric: Element dim larger than meshdim: 3 vs. 0
ERROR:: ElementMetric: Degenerate 3D element: -1
ElementMetric: Body Id: 0 DetG:   0.000E+00
ElementMetric: Node: 1 Coord:   0.000E+00   0.000E+00   0.000E+00
ElementMetric: Node: 2 Coord:   1.000E+00   0.000E+00   0.000E+00
ElementMetric: Node: 3 Coord:   0.000E+00   1.000E+00   0.000E+00
ElementMetric: Node: 4 Coord:   0.000E+00   0.000E+00   1.000E+00
ElementMetric: Node: 5 Coord:   5.000E-01   0.000E+00   0.000E+00
ElementMetric: Node: 6 Coord:   5.000E-01   5.000E-01   0.000E+00
ElementMetric: Node: 7 Coord:   0.000E+00   5.000E-01   0.000E+00
ElementMetric: Node: 8 Coord:   0.000E+00   0.000E+00   5.000E-01
ElementMetric: Node: 9 Coord:   5.000E-01   0.000E+00   5.000E-01
ElementMetric: Node: 10 Coord:   0.000E+00   5.000E-01   5.000E-01
ElementMetric: Node: 2 dCoord:   1.000E+00   0.000E+00   0.000E+00
ElementMetric: Node: 3 dCoord:   0.000E+00   1.000E+00   0.000E+00
ElementMetric: Node: 4 dCoord:   0.000E+00   0.000E+00   1.000E+00
ElementMetric: Node: 5 dCoord:   5.000E-01   0.000E+00   0.000E+00
ElementMetric: Node: 6 dCoord:   5.000E-01   5.000E-01   0.000E+00
ElementMetric: Node: 7 dCoord:   0.000E+00   5.000E-01   0.000E+00
ElementMetric: Node: 8 dCoord:   0.000E+00   0.000E+00   5.000E-01
ElementMetric: Node: 9 dCoord:   5.000E-01   0.000E+00   5.000E-01
ElementMetric: Node: 10 dCoord:   0.000E+00   5.000E-01   5.000E-01
ElementMetric: Element dim larger than meshdim: 3 vs. 0
ERROR:: ElementMetric: Degenerate 3D element: -1
ElementMetric: Body Id: 0 DetG:   0.000E+00
ElementMetric: Node: 1 Coord:   0.000E+00   0.000E+00   0.000E+00
ElementMetric: Node: 2 Coord:   1.000E+00   0.000E+00   0.000E+00
ElementMetric: Node: 3 Coord:   0.000E+00   1.000E+00   0.000E+00
ElementMetric: Node: 4 Coord:   0.000E+00   0.000E+00   1.000E+00
ElementMetric: Node: 5 Coord:   5.000E-01   0.000E+00   0.000E+00
ElementMetric: Node: 6 Coord:   5.000E-01   5.000E-01   0.000E+00
ElementMetric: Node: 7 Coord:   0.000E+00   5.000E-01   0.000E+00
ElementMetric: Node: 8 Coord:   0.000E+00   0.000E+00   5.000E-01
ElementMetric: Node: 9 Coord:   5.000E-01   0.000E+00   5.000E-01
ElementMetric: Node: 10 Coord:   0.000E+00   5.000E-01   5.000E-01
ElementMetric: Node: 2 dCoord:   1.000E+00   0.000E+00   0.000E+00
ElementMetric: Node: 3 dCoord:   0.000E+00   1.000E+00   0.000E+00
ElementMetric: Node: 4 dCoord:   0.000E+00   0.000E+00   1.000E+00
ElementMetric: Node: 5 dCoord:   5.000E-01   0.000E+00   0.000E+00
ElementMetric: Node: 6 dCoord:   5.000E-01   5.000E-01   0.000E+00
ElementMetric: Node: 7 dCoord:   0.000E+00   5.000E-01   0.000E+00
ElementMetric: Node: 8 dCoord:   0.000E+00   0.000E+00   5.000E-01
ElementMetric: Node: 9 dCoord:   5.000E-01   0.000E+00   5.000E-01
ElementMetric: Node: 10 dCoord:   0.000E+00   5.000E-01   5.000E-01
ElementMetric: Element dim larger than meshdim: 3 vs. 0
ERROR:: ElementMetric: Degenerate 3D element: -1
ElementMetric: Body Id: 0 DetG:   0.000E+00
ElementMetric: Node: 1 Coord:   0.000E+00   0.000E+00   0.000E+00
ElementMetric: Node: 2 Coord:   1.000E+00   0.000E+00   0.000E+00
ElementMetric: Node: 3 Coord:   0.000E+00   1.000E+00   0.000E+00
ElementMetric: Node: 4 Coord:   0.000E+00   0.000E+00   1.000E+00
ElementMetric: Node: 5 Coord:   5.000E-01   0.000E+00   0.000E+00
ElementMetric: Node: 6 Coord:   5.000E-01   5.000E-01   0.000E+00
ElementMetric: Node: 7 Coord:   0.000E+00   5.000E-01   0.000E+00
ElementMetric: Node: 8 Coord:   0.000E+00   0.000E+00   5.000E-01
ElementMetric: Node: 9 Coord:   5.000E-01   0.000E+00   5.000E-01
ElementMetric: Node: 10 Coord:   0.000E+00   5.000E-01   5.000E-01
ElementMetric: Node: 2 dCoord:   1.000E+00   0.000E+00   0.000E+00
ElementMetric: Node: 3 dCoord:   0.000E+00   1.000E+00   0.000E+00
ElementMetric: Node: 4 dCoord:   0.000E+00   0.000E+00   1.000E+00
ElementMetric: Node: 5 dCoord:   5.000E-01   0.000E+00   0.000E+00
ElementMetric: Node: 6 dCoord:   5.000E-01   5.000E-01   0.000E+00
ElementMetric: Node: 7 dCoord:   0.000E+00   5.000E-01   0.000E+00
ElementMetric: Node: 8 dCoord:   0.000E+00   0.000E+00   5.000E-01
ElementMetric: Node: 9 dCoord:   5.000E-01   0.000E+00   5.000E-01
ElementMetric: Node: 10 dCoord:   0.000E+00   5.000E-01   5.000E-01
ElementMetric: Element dim larger than meshdim: 3 vs. 0
ERROR:: ElementMetric: Degenerate 3D element: -1
ElementMetric: Body Id: 0 DetG:   0.000E+00
ElementMetric: Node: 1 Coord:   0.000E+00   0.000E+00   0.000E+00
ElementMetric: Node: 2 Coord:   1.000E+00   0.000E+00   0.000E+00
ElementMetric: Node: 3 Coord:   0.000E+00   1.000E+00   0.000E+00
ElementMetric: Node: 4 Coord:   0.000E+00   0.000E+00   1.000E+00
ElementMetric: Node: 5 Coord:   5.000E-01   0.000E+00   0.000E+00
ElementMetric: Node: 6 Coord:   5.000E-01   5.000E-01   0.000E+00
ElementMetric: Node: 7 Coord:   0.000E+00   5.000E-01   0.000E+00
ElementMetric: Node: 8 Coord:   0.000E+00   0.000E+00   5.000E-01
ElementMetric: Node: 9 Coord:   5.000E-01   0.000E+00   5.000E-01
ElementMetric: Node: 10 Coord:   0.000E+00   5.000E-01   5.000E-01
ElementMetric: Node: 2 dCoord:   1.000E+00   0.000E+00   0.000E+00
ElementMetric: Node: 3 dCoord:   0.000E+00   1.000E+00   0.000E+00
ElementMetric: Node: 4 dCoord:   0.000E+00   0.000E+00   1.000E+00
ElementMetric: Node: 5 dCoord:   5.000E-01   0.000E+00   0.000E+00
ElementMetric: Node: 6 dCoord:   5.000E-01   5.000E-01   0.000E+00
ElementMetric: Node: 7 dCoord:   0.000E+00   5.000E-01   0.000E+00
ElementMetric: Node: 8 dCoord:   0.000E+00   0.000E+00   5.000E-01
ElementMetric: Node: 9 dCoord:   5.000E-01   0.000E+00   5.000E-01
ElementMetric: Node: 10 dCoord:   0.000E+00   5.000E-01   5.000E-01
ElementMetric: Element dim larger than meshdim: 3 vs. 0
ERROR:: ElementMetric: Degenerate 3D element: -1
ElementMetric: Body Id: 0 DetG:   0.000E+00
ElementMetric: Node: 1 Coord:   0.000E+00   0.000E+00   0.000E+00
ElementMetric: Node: 2 Coord:   1.000E+00   0.000E+00   0.000E+00
ElementMetric: Node: 3 Coord:   0.000E+00   1.000E+00   0.000E+00
ElementMetric: Node: 4 Coord:   0.000E+00   0.000E+00   1.000E+00
ElementMetric: Node: 5 Coord:   5.000E-01   0.000E+00   0.000E+00
ElementMetric: Node: 6 Coord:   5.000E-01   5.000E-01   0.000E+00
ElementMetric: Node: 7 Coord:   0.000E+00   5.000E-01   0.000E+00
ElementMetric: Node: 8 Coord:   0.000E+00   0.000E+00   5.000E-01
ElementMetric: Node: 9 Coord:   5.000E-01   0.000E+00   5.000E-01
ElementMetric: Node: 10 Coord:   0.000E+00   5.000E-01   5.000E-01
ElementMetric: Node: 2 dCoord:   1.000E+00   0.000E+00   0.000E+00
ElementMetric: Node: 3 dCoord:   0.000E+00   1.000E+00   0.000E+00
ElementMetric: Node: 4 dCoord:   0.000E+00   0.000E+00   1.000E+00
ElementMetric: Node: 5 dCoord:   5.000E-01   0.000E+00   0.000E+00
ElementMetric: Node: 6 dCoord:   5.000E-01   5.000E-01   0.000E+00
ElementMetric: Node: 7 dCoord:   0.000E+00   5.000E-01   0.000E+00
ElementMetric: Node: 8 dCoord:   0.000E+00   0.000E+00   5.000E-01
ElementMetric: Node: 9 dCoord:   5.000E-01   0.000E+00   5.000E-01
ElementMetric: Node: 10 dCoord:   0.000E+00   5.000E-01   5.000E-01
ElementMetric: Element dim larger than meshdim: 3 vs. 0
ERROR:: ElementMetric: Degenerate 3D element: -1
ElementMetric: Body Id: 0 DetG:   0.000E+00
ElementMetric: Node: 1 Coord:   0.000E+00   0.000E+00   0.000E+00
ElementMetric: Node: 2 Coord:   1.000E+00   0.000E+00   0.000E+00
ElementMetric: Node: 3 Coord:   0.000E+00   1.000E+00   0.000E+00
ElementMetric: Node: 4 Coord:   0.000E+00   0.000E+00   1.000E+00
ElementMetric: Node: 5 Coord:   5.000E-01   0.000E+00   0.000E+00
ElementMetric: Node: 6 Coord:   5.000E-01   5.000E-01   0.000E+00
ElementMetric: Node: 7 Coord:   0.000E+00   5.000E-01   0.000E+00
ElementMetric: Node: 8 Coord:   0.000E+00   0.000E+00   5.000E-01
ElementMetric: Node: 9 Coord:   5.000E-01   0.000E+00   5.000E-01
ElementMetric: Node: 10 Coord:   0.000E+00   5.000E-01   5.000E-01
ElementMetric: Node: 2 dCoord:   1.000E+00   0.000E+00   0.000E+00
ElementMetric: Node: 3 dCoord:   0.000E+00   1.000E+00   0.000E+00
ElementMetric: Node: 4 dCoord:   0.000E+00   0.000E+00   1.000E+00
ElementMetric: Node: 5 dCoord:   5.000E-01   0.000E+00   0.000E+00
ElementMetric: Node: 6 dCoord:   5.000E-01   5.000E-01   0.000E+00
ElementMetric: Node: 7 dCoord:   0.000E+00   5.000E-01   0.000E+00
ElementMetric: Node: 8 dCoord:   0.000E+00   0.000E+00   5.000E-01
ElementMetric: Node: 9 dCoord:   5.000E-01   0.000E+00   5.000E-01
ElementMetric: Node: 10 dCoord:   0.000E+00   5.000E-01   5.000E-01
ElementMetric: Element dim larger than meshdim: 3 vs. 0
ERROR:: ElementMetric: Degenerate 3D element: -1
ElementMetric: Body Id: 0 DetG:   0.000E+00
ElementMetric: Node: 1 Coord:   0.000E+00   0.000E+00   0.000E+00
ElementMetric: Node: 2 Coord:   1.000E+00   0.000E+00   0.000E+00
ElementMetric: Node: 3 Coord:   0.000E+00   1.000E+00   0.000E+00
ElementMetric: Node: 4 Coord:   0.000E+00   0.000E+00   1.000E+00
ElementMetric: Node: 5 Coord:   5.000E-01   0.000E+00   0.000E+00
ElementMetric: Node: 6 Coord:   5.000E-01   5.000E-01   0.000E+00
ElementMetric: Node: 7 Coord:   0.000E+00   5.000E-01   0.000E+00
ElementMetric: Node: 8 Coord:   0.000E+00   0.000E+00   5.000E-01
ElementMetric: Node: 9 Coord:   5.000E-01   0.000E+00   5.000E-01
ElementMetric: Node: 10 Coord:   0.000E+00   5.000E-01   5.000E-01
ElementMetric: Node: 2 dCoord:   1.000E+00   0.000E+00   0.000E+00
ElementMetric: Node: 3 dCoord:   0.000E+00   1.000E+00   0.000E+00
ElementMetric: Node: 4 dCoord:   0.000E+00   0.000E+00   1.000E+00
ElementMetric: Node: 5 dCoord:   5.000E-01   0.000E+00   0.000E+00
ElementMetric: Node: 6 dCoord:   5.000E-01   5.000E-01   0.000E+00
ElementMetric: Node: 7 dCoord:   0.000E+00   5.000E-01   0.000E+00
ElementMetric: Node: 8 dCoord:   0.000E+00   0.000E+00   5.000E-01
ElementMetric: Node: 9 dCoord:   5.000E-01   0.000E+00   5.000E-01
ElementMetric: Node: 10 dCoord:   0.000E+00   5.000E-01   5.000E-01
ElementMetric: Element dim larger than meshdim: 3 vs. 0
ERROR:: ElementMetric: Degenerate 3D element: -1
ElementMetric: Body Id: 0 DetG:   0.000E+00
ElementMetric: Node: 1 Coord:   0.000E+00   0.000E+00   0.000E+00
ElementMetric: Node: 2 Coord:   1.000E+00   0.000E+00   0.000E+00
ElementMetric: Node: 3 Coord:   0.000E+00   1.000E+00   0.000E+00
ElementMetric: Node: 4 Coord:   0.000E+00   0.000E+00   1.000E+00
ElementMetric: Node: 5 Coord:   5.000E-01   0.000E+00   0.000E+00
ElementMetric: Node: 6 Coord:   5.000E-01   5.000E-01   0.000E+00
ElementMetric: Node: 7 Coord:   0.000E+00   5.000E-01   0.000E+00
ElementMetric: Node: 8 Coord:   0.000E+00   0.000E+00   5.000E-01
ElementMetric: Node: 9 Coord:   5.000E-01   0.000E+00   5.000E-01
ElementMetric: Node: 10 Coord:   0.000E+00   5.000E-01   5.000E-01
ElementMetric: Node: 2 dCoord:   1.000E+00   0.000E+00   0.000E+00
ElementMetric: Node: 3 dCoord:   0.000E+00   1.000E+00   0.000E+00
ElementMetric: Node: 4 dCoord:   0.000E+00   0.000E+00   1.000E+00
ElementMetric: Node: 5 dCoord:   5.000E-01   0.000E+00   0.000E+00
ElementMetric: Node: 6 dCoord:   5.000E-01   5.000E-01   0.000E+00
ElementMetric: Node: 7 dCoord:   0.000E+00   5.000E-01   0.000E+00
ElementMetric: Node: 8 dCoord:   0.000E+00   0.000E+00   5.000E-01
ElementMetric: Node: 9 dCoord:   5.000E-01   0.000E+00   5.000E-01
ElementMetric: Node: 10 dCoord:   0.000E+00   5.000E-01   5.000E-01
ElementMetric: Element dim larger than meshdim: 3 vs. 0
ERROR:: ElementMetric: Degenerate 3D element: -1
ElementMetric: Body Id: 0 DetG:   0.000E+00
ElementMetric: Node: 1 Coord:   0.000E+00   0.000E+00   0.000E+00
ElementMetric: Node: 2 Coord:   1.000E+00   0.000E+00   0.000E+00
ElementMetric: Node: 3 Coord:   0.000E+00   1.000E+00   0.000E+00
ElementMetric: Node: 4 Coord:   0.000E+00   0.000E+00   1.000E+00
ElementMetric: Node: 5 Coord:   5.000E-01   0.000E+00   0.000E+00
ElementMetric: Node: 6 Coord:   5.000E-01   5.000E-01   0.000E+00
ElementMetric: Node: 7 Coord:   0.000E+00   5.000E-01   0.000E+00
ElementMetric: Node: 8 Coord:   0.000E+00   0.000E+00   5.000E-01
ElementMetric: Node: 9 Coord:   5.000E-01   0.000E+00   5.000E-01
ElementMetric: Node: 10 Coord:   0.000E+00   5.000E-01   5.000E-01
ElementMetric: Node: 2 dCoord:   1.000E+00   0.000E+00   0.000E+00
ElementMetric: Node: 3 dCoord:   0.000E+00   1.000E+00   0.000E+00
ElementMetric: Node: 4 dCoord:   0.000E+00   0.000E+00   1.000E+00
ElementMetric: Node: 5 dCoord:   5.000E-01   0.000E+00   0.000E+00
ElementMetric: Node: 6 dCoord:   5.000E-01   5.000E-01   0.000E+00
ElementMetric: Node: 7 dCoord:   0.000E+00   5.000E-01   0.000E+00
ElementMetric: Node: 8 dCoord:   0.000E+00   0.000E+00   5.000E-01
ElementMetric: Node: 9 dCoord:   5.000E-01   0.000E+00   5.000E-01
ElementMetric: Node: 10 dCoord:   0.000E+00   5.000E-01   5.000E-01
ElementMetric: Element dim larger than meshdim: 3 vs. 0
ERROR:: ElementMetric: Degenerate 3D element: -1
ElementMetric: Body Id: 0 DetG:   0.000E+00
ElementMetric: Node: 1 Coord:   0.000E+00   0.000E+00   0.000E+00
ElementMetric: Node: 2 Coord:   1.000E+00   0.000E+00   0.000E+00
ElementMetric: Node: 3 Coord:   0.000E+00   1.000E+00   0.000E+00
ElementMetric: Node: 4 Coord:   0.000E+00   0.000E+00   1.000E+00
ElementMetric: Node: 5 Coord:   5.000E-01   0.000E+00   0.000E+00
ElementMetric: Node: 6 Coord:   5.000E-01   5.000E-01   0.000E+00
ElementMetric: Node: 7 Coord:   0.000E+00   5.000E-01   0.000E+00
ElementMetric: Node: 8 Coord:   0.000E+00   0.000E+00   5.000E-01
ElementMetric: Node: 9 Coord:   5.000E-01   0.000E+00   5.000E-01
ElementMetric: Node: 10 Coord:   0.000E+00   5.000E-01   5.000E-01
ElementMetric: Node: 2 dCoord:   1.000E+00   0.000E+00   0.000E+00
ElementMetric: Node: 3 dCoord:   0.000E+00   1.000E+00   0.000E+00
ElementMetric: Node: 4 dCoord:   0.000E+00   0.000E+00   1.000E+00
ElementMetric: Node: 5 dCoord:   5.000E-01   0.000E+00   0.000E+00
ElementMetric: Node: 6 dCoord:   5.000E-01   5.000E-01   0.000E+00
ElementMetric: Node: 7 dCoord:   0.000E+00   5.000E-01   0.000E+00
ElementMetric: Node: 8 dCoord:   0.000E+00   0.000E+00   5.000E-01
ElementMetric: Node: 9 dCoord:   5.000E-01   0.000E+00   5.000E-01
ElementMetric: Node: 10 dCoord:   0.000E+00   5.000E-01   5.000E-01
ElementMetric: Element dim larger than meshdim: 3 vs. 0
ERROR:: ElementMetric: Degenerate 2D element: -1
ElementMetric: Body Id: 0 DetG:   0.000E+00
ElementMetric: Node: 1 Coord:   0.000E+00   0.000E+00   0.000E+00
ElementMetric: Node: 2 Coord:   1.000E+00   0.000E+00   0.000E+00
ElementMetric: Node: 3 Coord:   0.000E+00   1.000E+00   0.000E+00
ElementMetric: Node: 4 Coord:   5.000E-01   0.000E+00   0.000E+00
ElementMetric: Node: 5 Coord:   5.000E-01   5.000E-01   0.000E+00
ElementMetric: Node: 6 Coord:   0.000E+00   5.000E-01   0.000E+00
ElementMetric: Node: 2 dCoord:   1.000E+00   0.000E+00   0.000E+00
ElementMetric: Node: 3 dCoord:   0.000E+00   1.000E+00   0.000E+00
ElementMetric: Node: 4 dCoord:   5.000E-01   0.000E+00   0.000E+00
ElementMetric: Node: 5 dCoord:   5.000E-01   5.000E-01   0.000E+00
ElementMetric: Node: 6 dCoord:   0.000E+00   5.000E-01   0.000E+00
ElementMetric: Element dim larger than meshdim: 2 vs. 0
ERROR:: ElementMetric: Degenerate 2D element: -1
ElementMetric: Body Id: 0 DetG:   0.000E+00
ElementMetric: Node: 1 Coord:   0.000E+00   0.000E+00   0.000E+00
ElementMetric: Node: 2 Coord:   1.000E+00   0.000E+00   0.000E+00
ElementMetric: Node: 3 Coord:   0.000E+00   1.000E+00   0.000E+00
ElementMetric: Node: 4 Coord:   5.000E-01   0.000E+00   0.000E+00
ElementMetric: Node: 5 Coord:   5.000E-01   5.000E-01   0.000E+00
ElementMetric: Node: 6 Coord:   0.000E+00   5.000E-01   0.000E+00
ElementMetric: Node: 2 dCoord:   1.000E+00   0.000E+00   0.000E+00
ElementMetric: Node: 3 dCoord:   0.000E+00   1.000E+00   0.000E+00
ElementMetric: Node: 4 dCoord:   5.000E-01   0.000E+00   0.000E+00
ElementMetric: Node: 5 dCoord:   5.000E-01   5.000E-01   0.000E+00
ElementMetric: Node: 6 dCoord:   0.000E+00   5.000E-01   0.000E+00
ElementMetric: Element dim larger than meshdim: 2 vs. 0
ERROR:: ElementMetric: Degenerate 2D element: -1
ElementMetric: Body Id: 0 DetG:   0.000E+00
ElementMetric: Node: 1 Coord:   0.000E+00   0.000E+00   0.000E+00
ElementMetric: Node: 2 Coord:   1.000E+00   0.000E+00   0.000E+00
ElementMetric: Node: 3 Coord:   0.000E+00   1.000E+00   0.000E+00
ElementMetric: Node: 4 Coord:   5.000E-01   0.000E+00   0.000E+00
ElementMetric: Node: 5 Coord:   5.000E-01   5.000E-01   0.000E+00
ElementMetric: Node: 6 Coord:   0.000E+00   5.000E-01   0.000E+00
ElementMetric: Node: 2 dCoord:   1.000E+00   0.000E+00   0.000E+00
ElementMetric: Node: 3 dCoord:   0.000E+00   1.000E+00   0.000E+00
ElementMetric: Node: 4 dCoord:   5.000E-01   0.000E+00   0.000E+00
ElementMetric: Node: 5 dCoord:   5.000E-01   5.000E-01   0.000E+00
ElementMetric: Node: 6 dCoord:   0.000E+00   5.000E-01   0.000E+00
ElementMetric: Element dim larger than meshdim: 2 vs. 0
ERROR:: ElementMetric: Degenerate 2D element: -1
ElementMetric: Body Id: 0 DetG:   0.000E+00
ElementMetric: Node: 1 Coord:   0.000E+00   0.000E+00   0.000E+00
ElementMetric: Node: 2 Coord:   1.000E+00   0.000E+00   0.000E+00
ElementMetric: Node: 3 Coord:   0.000E+00   1.000E+00   0.000E+00
ElementMetric: Node: 4 Coord:   5.000E-01   0.000E+00   0.000E+00
ElementMetric: Node: 5 Coord:   5.000E-01   5.000E-01   0.000E+00
ElementMetric: Node: 6 Coord:   0.000E+00   5.000E-01   0.000E+00
ElementMetric: Node: 2 dCoord:   1.000E+00   0.000E+00   0.000E+00
ElementMetric: Node: 3 dCoord:   0.000E+00   1.000E+00   0.000E+00
ElementMetric: Node: 4 dCoord:   5.000E-01   0.000E+00   0.000E+00
ElementMetric: Node: 5 dCoord:   5.000E-01   5.000E-01   0.000E+00
ElementMetric: Node: 6 dCoord:   0.000E+00   5.000E-01   0.000E+00
ElementMetric: Element dim larger than meshdim: 2 vs. 0
ERROR:: ElementMetric: Degenerate 2D element: -1
ElementMetric: Body Id: 0 DetG:   0.000E+00
ElementMetric: Node: 1 Coord:   0.000E+00   0.000E+00   0.000E+00
ElementMetric: Node: 2 Coord:   1.000E+00   0.000E+00   0.000E+00
ElementMetric: Node: 3 Coord:   0.000E+00   1.000E+00   0.000E+00
ElementMetric: Node: 4 Coord:   5.000E-01   0.000E+00   0.000E+00
ElementMetric: Node: 5 Coord:   5.000E-01   5.000E-01   0.000E+00
ElementMetric: Node: 6 Coord:   0.000E+00   5.000E-01   0.000E+00
ElementMetric: Node: 2 dCoord:   1.000E+00   0.000E+00   0.000E+00
ElementMetric: Node: 3 dCoord:   0.000E+00   1.000E+00   0.000E+00
ElementMetric: Node: 4 dCoord:   5.000E-01   0.000E+00   0.000E+00
ElementMetric: Node: 5 dCoord:   5.000E-01   5.000E-01   0.000E+00
ElementMetric: Node: 6 dCoord:   0.000E+00   5.000E-01   0.000E+00
ElementMetric: Element dim larger than meshdim: 2 vs. 0
ERROR:: ElementMetric: Degenerate 2D element: -1
ElementMetric: Body Id: 0 DetG:   0.000E+00
ElementMetric: Node: 1 Coord:   0.000E+00   0.000E+00   0.000E+00
ElementMetric: Node: 2 Coord:   1.000E+00   0.000E+00   0.000E+00
ElementMetric: Node: 3 Coord:   0.000E+00   1.000E+00   0.000E+00
ElementMetric: Node: 4 Coord:   5.000E-01   0.000E+00   0.000E+00
ElementMetric: Node: 5 Coord:   5.000E-01   5.000E-01   0.000E+00
ElementMetric: Node: 6 Coord:   0.000E+00   5.000E-01   0.000E+00
ElementMetric: Node: 2 dCoord:   1.000E+00   0.000E+00   0.000E+00
ElementMetric: Node: 3 dCoord:   0.000E+00   1.000E+00   0.000E+00
ElementMetric: Node: 4 dCoord:   5.000E-01   0.000E+00   0.000E+00
ElementMetric: Node: 5 dCoord:   5.000E-01   5.000E-01   0.000E+00
ElementMetric: Node: 6 dCoord:   0.000E+00   5.000E-01   0.000E+00
ElementMetric: Element dim larger than meshdim: 2 vs. 0
ERROR:: ElementMetric: Degenerate 2D element: -1
ElementMetric: Body Id: 0 DetG:   0.000E+00
ElementMetric: Node: 1 Coord:   0.000E+00   0.000E+00   0.000E+00
ElementMetric: Node: 2 Coord:   1.000E+00   0.000E+00   0.000E+00
ElementMetric: Node: 3 Coord:   0.000E+00   1.000E+00   0.000E+00
ElementMetric: Node: 4 Coord:   5.000E-01   0.000E+00   0.000E+00
ElementMetric: Node: 5 Coord:   5.000E-01   5.000E-01   0.000E+00
ElementMetric: Node: 6 Coord:   0.000E+00   5.000E-01   0.000E+00
ElementMetric: Node: 2 dCoord:   1.000E+00   0.000E+00   0.000E+00
ElementMetric: Node: 3 dCoord:   0.000E+00   1.000E+00   0.000E+00
ElementMetric: Node: 4 dCoord:   5.000E-01   0.000E+00   0.000E+00
ElementMetric: Node: 5 dCoord:   5.000E-01   5.000E-01   0.000E+00
ElementMetric: Node: 6 dCoord:   0.000E+00   5.000E-01   0.000E+00
ElementMetric: Element dim larger than meshdim: 2 vs. 0
ERROR:: ElementMetric: Degenerate 2D element: -1
ElementMetric: Body Id: 0 DetG:   0.000E+00
ElementMetric: Node: 1 Coord:   0.000E+00   0.000E+00   0.000E+00
ElementMetric: Node: 2 Coord:   1.000E+00   0.000E+00   0.000E+00
ElementMetric: Node: 3 Coord:   0.000E+00   1.000E+00   0.000E+00
ElementMetric: Node: 4 Coord:   5.000E-01   0.000E+00   0.000E+00
ElementMetric: Node: 5 Coord:   5.000E-01   5.000E-01   0.000E+00
ElementMetric: Node: 6 Coord:   0.000E+00   5.000E-01   0.000E+00
ElementMetric: Node: 2 dCoord:   1.000E+00   0.000E+00   0.000E+00
ElementMetric: Node: 3 dCoord:   0.000E+00   1.000E+00   0.000E+00
ElementMetric: Node: 4 dCoord:   5.000E-01   0.000E+00   0.000E+00
ElementMetric: Node: 5 dCoord:   5.000E-01   5.000E-01   0.000E+00
ElementMetric: Node: 6 dCoord:   0.000E+00   5.000E-01   0.000E+00
ElementMetric: Element dim larger than meshdim: 2 vs. 0
ERROR:: ElementMetric: Degenerate 2D element: -1
ElementMetric: Body Id: 0 DetG:   0.000E+00
ElementMetric: Node: 1 Coord:   0.000E+00   0.000E+00   0.000E+00
ElementMetric: Node: 2 Coord:   1.000E+00   0.000E+00   0.000E+00
ElementMetric: Node: 3 Coord:   0.000E+00   1.000E+00   0.000E+00
ElementMetric: Node: 4 Coord:   5.000E-01   0.000E+00   0.000E+00
ElementMetric: Node: 5 Coord:   5.000E-01   5.000E-01   0.000E+00
ElementMetric: Node: 6 Coord:   0.000E+00   5.000E-01   0.000E+00
ElementMetric: Node: 2 dCoord:   1.000E+00   0.000E+00   0.000E+00
ElementMetric: Node: 3 dCoord:   0.000E+00   1.000E+00   0.000E+00
ElementMetric: Node: 4 dCoord:   5.000E-01   0.000E+00   0.000E+00
ElementMetric: Node: 5 dCoord:   5.000E-01   5.000E-01   0.000E+00
ElementMetric: Node: 6 dCoord:   0.000E+00   5.000E-01   0.000E+00
ElementMetric: Element dim larger than meshdim: 2 vs. 0
ERROR:: ElementMetric: Degenerate 2D element: -1
ElementMetric: Body Id: 0 DetG:   0.000E+00
ElementMetric: Node: 1 Coord:   0.000E+00   0.000E+00   0.000E+00
ElementMetric: Node: 2 Coord:   1.000E+00   0.000E+00   0.000E+00
ElementMetric: Node: 3 Coord:   0.000E+00   1.000E+00   0.000E+00
ElementMetric: Node: 4 Coord:   5.000E-01   0.000E+00   0.000E+00
ElementMetric: Node: 5 Coord:   5.000E-01   5.000E-01   0.000E+00
ElementMetric: Node: 6 Coord:   0.000E+00   5.000E-01   0.000E+00
ElementMetric: Node: 2 dCoord:   1.000E+00   0.000E+00   0.000E+00
ElementMetric: Node: 3 dCoord:   0.000E+00   1.000E+00   0.000E+00
ElementMetric: Node: 4 dCoord:   5.000E-01   0.000E+00   0.000E+00
ElementMetric: Node: 5 dCoord:   5.000E-01   5.000E-01   0.000E+00
ElementMetric: Node: 6 dCoord:   0.000E+00   5.000E-01   0.000E+00
ElementMetric: Element dim larger than meshdim: 2 vs. 0
ERROR:: ElementMetric: Degenerate 2D element: -1
ElementMetric: Body Id: 0 DetG:   0.000E+00
ElementMetric: Node: 1 Coord:   0.000E+00   0.000E+00   0.000E+00
ElementMetric: Node: 2 Coord:   1.000E+00   0.000E+00   0.000E+00
ElementMetric: Node: 3 Coord:   0.000E+00   1.000E+00   0.000E+00
ElementMetric: Node: 4 Coord:   5.000E-01   0.000E+00   0.000E+00
ElementMetric: Node: 5 Coord:   5.000E-01   5.000E-01   0.000E+00
ElementMetric: Node: 6 Coord:   0.000E+00   5.000E-01   0.000E+00
ElementMetric: Node: 2 dCoord:   1.000E+00   0.000E+00   0.000E+00
ElementMetric: Node: 3 dCoord:   0.000E+00   1.000E+00   0.000E+00
ElementMetric: Node: 4 dCoord:   5.000E-01   0.000E+00   0.000E+00
ElementMetric: Node: 5 dCoord:   5.000E-01   5.000E-01   0.000E+00
ElementMetric: Node: 6 dCoord:   0.000E+00   5.000E-01   0.000E+00
ElementMetric: Element dim larger than meshdim: 2 vs. 0
ERROR:: ElementMetric: Degenerate 2D element: -1
ElementMetric: Body Id: 0 DetG:   0.000E+00
ElementMetric: Node: 1 Coord:   0.000E+00   0.000E+00   0.000E+00
ElementMetric: Node: 2 Coord:   1.000E+00   0.000E+00   0.000E+00
ElementMetric: Node: 3 Coord:   0.000E+00   1.000E+00   0.000E+00
ElementMetric: Node: 4 Coord:   5.000E-01   0.000E+00   0.000E+00
ElementMetric: Node: 5 Coord:   5.000E-01   5.000E-01   0.000E+00
ElementMetric: Node: 6 Coord:   0.000E+00   5.000E-01   0.000E+00
ElementMetric: Node: 2 dCoord:   1.000E+00   0.000E+00   0.000E+00
ElementMetric: Node: 3 dCoord:   0.000E+00   1.000E+00   0.000E+00
ElementMetric: Node: 4 dCoord:   5.000E-01   0.000E+00   0.000E+00
ElementMetric: Node: 5 dCoord:   5.000E-01   5.000E-01   0.000E+00
ElementMetric: Node: 6 dCoord:   0.000E+00   5.000E-01   0.000E+00
ElementMetric: Element dim larger than meshdim: 2 vs. 0
LoadMesh: Elapsed REAL time:     0.3778 (s)
MAIN: -------------------------------------
AddVtuOutputSolverHack: Adding ResultOutputSolver to write VTU output in file: case
Loading user function library: [HelmholtzSolve]...[HelmholtzSolver_Init]
Loading user function library: [HelmholtzSolve]...[HelmholtzSolver_bulk]
Loading user function library: [HelmholtzSolve]...[HelmholtzSolver]
OptimizeBandwidth: ---------------------------------------------------------
OptimizeBandwidth: Computing matrix structure for: helmholtz equation...done.
OptimizeBandwidth: Half bandwidth without optimization: 51228
OptimizeBandwidth: 
OptimizeBandwidth: Bandwidth Optimization ...done.
OptimizeBandwidth: Half bandwidth after optimization: 5482
OptimizeBandwidth: ---------------------------------------------------------
Loading user function library: [ResultOutputSolve]...[ResultOutputSolver_Init]
Loading user function library: [ResultOutputSolve]...[ResultOutputSolver_bulk]
Loading user function library: [ResultOutputSolve]...[ResultOutputSolver]
MAIN: 
MAIN: -------------------------------------
MAIN:  Time: 1/9   1.0000000000000000
MAIN: -------------------------------------
MAIN: 
SingleSolver: Attempting to call solver
SingleSolver: Solver Equation string is: helmholtz equation
HelmholtzSolve: 
HelmholtzSolve: -------------------------------------
HelmholtzSolve:  Helmholtz iteration           1
HelmholtzSolve:  Frequency (Hz):    16.000000000000000
HelmholtzSolve: -------------------------------------
HelmholtzSolve: 
HelmholtzSolve: Starting Assembly
HelmholtzSolve: Assembly:
: ...............WARNING:: GetParentMatProp: Invalid parent BodyId 0 for element 1341
WARNING:: GetParentMatProp: Invalid parent BodyId 0 for element 1514
WARNING:: GetParentMatProp: Invalid parent BodyId 0 for element 493
WARNING:: GetParentMatProp: Invalid parent BodyId 0 for element 108
WARNING:: GetParentMatProp: Invalid parent BodyId 0 for element 101
WARNING:: GetParentMatProp: Invalid parent BodyId 0 for element 106
WARNING:: GetParentMatProp: Invalid parent BodyId 0 for element 149
WARNING:: GetParentMatProp: Invalid parent BodyId 0 for element 415
WARNING:: GetParentMatProp: Invalid parent BodyId 0 for element 159
WARNING:: GetParentMatProp: Invalid parent BodyId 0 for element 617
WARNING:: GetParentMatProp: Invalid parent BodyId 0 for element 145
WARNING:: GetParentMatProp: Invalid parent BodyId 0 for element 161
WARNING:: GetParentMatProp: Invalid parent BodyId 0 for element 143
WARNING:: GetParentMatProp: Invalid parent BodyId 0 for element 122
WARNING:: GetParentMatProp: Invalid parent BodyId 0 for element 943
WARNING:: GetParentMatProp: Invalid parent BodyId 0 for element 757
WARNING:: GetParentMatProp: Invalid parent BodyId 0 for element 889
WARNING:: GetParentMatProp: Invalid parent BodyId 0 for element 641
WARNING:: GetParentMatProp: Invalid parent BodyId 0 for element 123
WARNING:: GetParentMatProp: Invalid parent BodyId 0 for element 941
WARNING:: GetParentMatProp: Invalid parent BodyId 0 for element 1295
WARNING:: GetParentMatProp: Invalid parent BodyId 0 for element 338
WARNING:: GetParentMatProp: Invalid parent BodyId 0 for element 421
WARNING:: GetParentMatProp: Invalid parent BodyId 0 for element 1483
WARNING:: GetParentMatProp: Invalid parent BodyId 0 for element 1170
WARNING:: GetParentMatProp: Invalid parent BodyId 0 for element 715
WARNING:: GetParentMatProp: Invalid parent BodyId 0 for element 1263
WARNING:: GetParentMatProp: Invalid parent BodyId 0 for element 656
WARNING:: GetParentMatProp: Invalid parent BodyId 0 for element 112
WARNING:: GetParentMatProp: Invalid parent BodyId 0 for element 339
WARNING:: GetParentMatProp: Invalid parent BodyId 0 for element 577
WARNING:: GetParentMatProp: Invalid parent BodyId 0 for element 1385
WARNING:: GetParentMatProp: Invalid parent BodyId 0 for element 147
WARNING:: GetParentMatProp: Invalid parent BodyId 0 for element 1382
WARNING:: GetParentMatProp: Invalid parent BodyId 0 for element 23
WARNING:: GetParentMatProp: Invalid parent BodyId 0 for element 1555
WARNING:: GetParentMatProp: Invalid parent BodyId 0 for element 20
WARNING:: GetParentMatProp: Invalid parent BodyId 0 for element 166
WARNING:: GetParentMatProp: Invalid parent BodyId 0 for element 1384
WARNING:: GetParentMatProp: Invalid parent BodyId 0 for element 1424
WARNING:: GetParentMatProp: Invalid parent BodyId 0 for element 588
WARNING:: GetParentMatProp: Invalid parent BodyId 0 for element 36
WARNING:: GetParentMatProp: Invalid parent BodyId 0 for element 423
WARNING:: GetParentMatProp: Invalid parent BodyId 0 for element 914
WARNING:: GetParentMatProp: Invalid parent BodyId 0 for element 524
WARNING:: GetParentMatProp: Invalid parent BodyId 0 for element 84
WARNING:: GetParentMatProp: Invalid parent BodyId 0 for element 548
WARNING:: GetParentMatProp: Invalid parent BodyId 0 for element 441
WARNING:: GetParentMatProp: Invalid parent BodyId 0 for element 1099
WARNING:: GetParentMatProp: Invalid parent BodyId 0 for element 1464
WARNING:: GetParentMatProp: Invalid parent BodyId 0 for element 483
WARNING:: GetParentMatProp: Invalid parent BodyId 0 for element 660
WARNING:: GetParentMatProp: Invalid parent BodyId 0 for element 661
WARNING:: GetParentMatProp: Invalid parent BodyId 0 for element 572
WARNING:: GetParentMatProp: Invalid parent BodyId 0 for element 1549
WARNING:: GetParentMatProp: Invalid parent BodyId 0 for element 1365
WARNING:: GetParentMatProp: Invalid parent BodyId 0 for element 1362
WARNING:: GetParentMatProp: Invalid parent BodyId 0 for element 54
WARNING:: GetParentMatProp: Invalid parent BodyId 0 for element 1331
WARNING:: GetParentMatProp: Invalid parent BodyId 0 for element 1275
WARNING:: GetParentMatProp: Invalid parent BodyId 0 for element 244
WARNING:: GetParentMatProp: Invalid parent BodyId 0 for element 1460
WARNING:: GetParentMatProp: Invalid parent BodyId 0 for element 218
WARNING:: GetParentMatProp: Invalid parent BodyId 0 for element 1307
WARNING:: GetParentMatProp: Invalid parent BodyId 0 for element 401
WARNING:: GetParentMatProp: Invalid parent BodyId 0 for element 1339
WARNING:: GetParentMatProp: Invalid parent BodyId 0 for element 845
WARNING:: GetParentMatProp: Invalid parent BodyId 0 for element 1
WARNING:: GetParentMatProp: Invalid parent BodyId 0 for element 560
WARNING:: GetParentMatProp: Invalid parent BodyId 0 for element 1340
WARNING:: GetParentMatProp: Invalid parent BodyId 0 for element 1037
WARNING:: GetParentMatProp: Invalid parent BodyId 0 for element 1448
WARNING:: GetParentMatProp: Invalid parent BodyId 0 for element 234
WARNING:: GetParentMatProp: Invalid parent BodyId 0 for element 261
WARNING:: GetParentMatProp: Invalid parent BodyId 0 for element 102
WARNING:: GetParentMatProp: Invalid parent BodyId 0 for element 616
WARNING:: GetParentMatProp: Invalid parent BodyId 0 for element 19
WARNING:: GetParentMatProp: Invalid parent BodyId 0 for element 1142
WARNING:: GetParentMatProp: Invalid parent BodyId 0 for element 31
WARNING:: GetParentMatProp: Invalid parent BodyId 0 for element 1389
WARNING:: GetParentMatProp: Invalid parent BodyId 0 for element 987
WARNING:: GetParentMatProp: Invalid parent BodyId 0 for element 1033
WARNING:: GetParentMatProp: Invalid parent BodyId 0 for element 518
WARNING:: GetParentMatProp: Invalid parent BodyId 0 for element 1134
WARNING:: GetParentMatProp: Invalid parent BodyId 0 for element 514
WARNING:: GetParentMatProp: Invalid parent BodyId 0 for element 1140
WARNING:: GetParentMatProp: Invalid parent BodyId 0 for element 1544
WARNING:: GetParentMatProp: Invalid parent BodyId 0 for element 1075
WARNING:: GetParentMatProp: Invalid parent BodyId 0 for element 828
WARNING:: GetParentMatProp: Invalid parent BodyId 0 for element 1225
WARNING:: GetParentMatProp: Invalid parent BodyId 0 for element 1072
WARNING:: GetParentMatProp: Invalid parent BodyId 0 for element 1274
WARNING:: GetParentMatProp: Invalid parent BodyId 0 for element 707
WARNING:: GetParentMatProp: Invalid parent BodyId 0 for element 995
WARNING:: GetParentMatProp: Invalid parent BodyId 0 for element 1264
WARNING:: GetParentMatProp: Invalid parent BodyId 0 for element 975
WARNING:: GetParentMatProp: Invalid parent BodyId 0 for element 999
WARNING:: GetParentMatProp: Invalid parent BodyId 0 for element 1363
WARNING:: GetParentMatProp: Invalid parent BodyId 0 for element 76
WARNING:: GetParentMatProp: Invalid parent BodyId 0 for element 1080
WARNING:: GetParentMatProp: Invalid parent BodyId 0 for element 984
WARNING:: GetParentMatProp: Invalid parent BodyId 0 for element 935
WARNING:: GetParentMatProp: Invalid parent BodyId 0 for element 1525
WARNING:: GetParentMatProp: Invalid parent BodyId 0 for element 438
WARNING:: GetParentMatProp: Invalid parent BodyId 0 for element 1491
WARNING:: GetParentMatProp: Invalid parent BodyId 0 for element 21
WARNING:: GetParentMatProp: Invalid parent BodyId 0 for element 396
WARNING:: GetParentMatProp: Invalid parent BodyId 0 for element 815
WARNING:: GetParentMatProp: Invalid parent BodyId 0 for element 667
WARNING:: GetParentMatProp: Invalid parent BodyId 0 for element 1531
WARNING:: GetParentMatProp: Invalid parent BodyId 0 for element 1133
WARNING:: GetParentMatProp: Invalid parent BodyId 0 for element 282
WARNING:: GetParentMatProp: Invalid parent BodyId 0 for element 563
WARNING:: GetParentMatProp: Invalid parent BodyId 0 for element 597
WARNING:: GetParentMatProp: Invalid parent BodyId 0 for element 330
WARNING:: GetParentMatProp: Invalid parent BodyId 0 for element 1441
WARNING:: GetParentMatProp: Invalid parent BodyId 0 for element 934
WARNING:: GetParentMatProp: Invalid parent BodyId 0 for element 1470
WARNING:: GetParentMatProp: Invalid parent BodyId 0 for element 931
WARNING:: GetParentMatProp: Invalid parent BodyId 0 for element 370
WARNING:: GetParentMatProp: Invalid parent BodyId 0 for element 288
WARNING:: GetParentMatProp: Invalid parent BodyId 0 for element 1289
WARNING:: GetParentMatProp: Invalid parent BodyId 0 for element 320
WARNING:: GetParentMatProp: Invalid parent BodyId 0 for element 275
WARNING:: GetParentMatProp: Invalid parent BodyId 0 for element 762
WARNING:: GetParentMatProp: Invalid parent BodyId 0 for element 552
WARNING:: GetParentMatProp: Invalid parent BodyId 0 for element 551
WARNING:: GetParentMatProp: Invalid parent BodyId 0 for element 738
WARNING:: GetParentMatProp: Invalid parent BodyId 0 for element 1125
WARNING:: GetParentMatProp: Invalid parent BodyId 0 for element 1244
WARNING:: GetParentMatProp: Invalid parent BodyId 0 for element 645
WARNING:: GetParentMatProp: Invalid parent BodyId 0 for element 313
WARNING:: GetParentMatProp: Invalid parent BodyId 0 for element 672
WARNING:: GetParentMatProp: Invalid parent BodyId 0 for element 1345
WARNING:: GetParentMatProp: Invalid parent BodyId 0 for element 375
WARNING:: GetParentMatProp: Invalid parent BodyId 0 for element 517
WARNING:: GetParentMatProp: Invalid parent BodyId 0 for element 1509
WARNING:: GetParentMatProp: Invalid parent BodyId 0 for element 336
WARNING:: GetParentMatProp: Invalid parent BodyId 0 for element 1417
WARNING:: GetParentMatProp: Invalid parent BodyId 0 for element 1008
WARNING:: GetParentMatProp: Invalid parent BodyId 0 for element 808
WARNING:: GetParentMatProp: Invalid parent BodyId 0 for element 1497
WARNING:: GetParentMatProp: Invalid parent BodyId 0 for element 1536
WARNING:: GetParentMatProp: Invalid parent BodyId 0 for element 1392
WARNING:: GetParentMatProp: Invalid parent BodyId 0 for element 488
WARNING:: GetParentMatProp: Invalid parent BodyId 0 for element 249
WARNING:: GetParentMatProp: Invalid parent BodyId 0 for element 440
WARNING:: GetParentMatProp: Invalid parent BodyId 0 for element 906
WARNING:: GetParentMatProp: Invalid parent BodyId 0 for element 400
WARNING:: GetParentMatProp: Invalid parent BodyId 0 for element 1486
WARNING:: GetParentMatProp: Invalid parent BodyId 0 for element 1028
WARNING:: GetParentMatProp: Invalid parent BodyId 0 for element 1126
WARNING:: GetParentMatProp: Invalid parent BodyId 0 for element 139
WARNING:: GetParentMatProp: Invalid parent BodyId 0 for element 899
WARNING:: GetParentMatProp: Invalid parent BodyId 0 for element 703
WARNING:: GetParentMatProp: Invalid parent BodyId 0 for element 1361
WARNING:: GetParentMatProp: Invalid parent BodyId 0 for element 1546
WARNING:: GetParentMatProp: Invalid parent BodyId 0 for element 1221
WARNING:: GetParentMatProp: Invalid parent BodyId 0 for element 1300
WARNING:: GetParentMatProp: Invalid parent BodyId 0 for element 239
WARNING:: GetParentMatProp: Invalid parent BodyId 0 for element 200
WARNING:: GetParentMatProp: Invalid parent BodyId 0 for element 1237
WARNING:: GetParentMatProp: Invalid parent BodyId 0 for element 1319
WARNING:: GetParentMatProp: Invalid parent BodyId 0 for element 1393
WARNING:: GetParentMatProp: Invalid parent BodyId 0 for element 1216
WARNING:: GetParentMatProp: Invalid parent BodyId 0 for element 427
WARNING:: GetParentMatProp: Invalid parent BodyId 0 for element 353
WARNING:: GetParentMatProp: Invalid parent BodyId 0 for element 666
WARNING:: GetParentMatProp: Invalid parent BodyId 0 for element 711
WARNING:: GetParentMatProp: Invalid parent BodyId 0 for element 949
WARNING:: GetParentMatProp: Invalid parent BodyId 0 for element 1356
WARNING:: GetParentMatProp: Invalid parent BodyId 0 for element 506
WARNING:: GetParentMatProp: Invalid parent BodyId 0 for element 55
WARNING:: GetParentMatProp: Invalid parent BodyId 0 for element 52
WARNING:: GetParentMatProp: Invalid parent BodyId 0 for element 1357
WARNING:: GetParentMatProp: Invalid parent BodyId 0 for element 1488
WARNING:: GetParentMatProp: Invalid parent BodyId 0 for element 601
WARNING:: GetParentMatProp: Invalid parent BodyId 0 for element 810
WARNING:: GetParentMatProp: Invalid parent BodyId 0 for element 521
WARNING:: GetParentMatProp: Invalid parent BodyId 0 for element 890
WARNING:: GetParentMatProp: Invalid parent BodyId 0 for element 426
WARNING:: GetParentMatProp: Invalid parent BodyId 0 for element 281
WARNING:: GetParentMatProp: Invalid parent BodyId 0 for element 1112
WARNING:: GetParentMatProp: Invalid parent BodyId 0 for element 1029
WARNING:: GetParentMatProp: Invalid parent BodyId 0 for element 920
WARNING:: GetParentMatProp: Invalid parent BodyId 0 for element 625
WARNING:: GetParentMatProp: Invalid parent BodyId 0 for element 785
WARNING:: GetParentMatProp: Invalid parent BodyId 0 for element 1019
WARNING:: GetParentMatProp: Invalid parent BodyId 0 for element 915
WARNING:: GetParentMatProp: Invalid parent BodyId 0 for element 1519
WARNING:: GetParentMatProp: Invalid parent BodyId 0 for element 609
WARNING:: GetParentMatProp: Invalid parent BodyId 0 for element 1116
WARNING:: GetParentMatProp: Invalid parent BodyId 0 for element 1487
WARNING:: GetParentMatProp: Invalid parent BodyId 0 for element 1151
WARNING:: GetParentMatProp: Invalid parent BodyId 0 for element 997
WARNING:: GetParentMatProp: Invalid parent BodyId 0 for element 653
WARNING:: GetParentMatProp: Invalid parent BodyId 0 for element 944
WARNING:: GetParentMatProp: Invalid parent BodyId 0 for element 1187
WARNING:: GetParentMatProp: Invalid parent BodyId 0 for element 746
WARNING:: GetParentMatProp: Invalid parent BodyId 0 for element 913
WARNING:: GetParentMatProp: Invalid parent BodyId 0 for element 800
WARNING:: GetParentMatProp: Invalid parent BodyId 0 for element 231
WARNING:: GetParentMatProp: Invalid parent BodyId 0 for element 1256
WARNING:: GetParentMatProp: Invalid parent BodyId 0 for element 1148
WARNING:: GetParentMatProp: Invalid parent BodyId 0 for element 1213
WARNING:: GetParentMatProp: Invalid parent BodyId 0 for element 1146
WARNING:: GetParentMatProp: Invalid parent BodyId 0 for element 1052
WARNING:: GetParentMatProp: Invalid parent BodyId 0 for element 663
WARNING:: GetParentMatProp: Invalid parent BodyId 0 for element 1013
WARNING:: GetParentMatProp: Invalid parent BodyId 0 for element 964
[...]
WARNING:: GetParentMatProp: Invalid parent BodyId 0 for element 409
WARNING:: GetParentMatProp: Invalid parent BodyId 0 for element 1539
WARNING:: GetParentMatProp: Invalid parent BodyId 0 for element 245
WARNING:: GetParentMatProp: Invalid parent BodyId 0 for element 972
WARNING:: GetParentMatProp: Invalid parent BodyId 0 for element 925
WARNING:: GetParentMatProp: Invalid parent BodyId 0 for element 797
WARNING:: GetParentMatProp: Invalid parent BodyId 0 for element 194
WARNING:: GetParentMatProp: Invalid parent BodyId 0 for element 205
WARNING:: GetParentMatProp: Invalid parent BodyId 0 for element 873
WARNING:: GetParentMatProp: Invalid parent BodyId 0 for element 636
WARNING:: GetParentMatProp: Invalid parent BodyId 0 for element 1083
WARNING:: GetParentMatProp: Invalid parent BodyId 0 for element 17
WARNING:: GetParentMatProp: Invalid parent BodyId 0 for element 1458
Assembly done
DefUtils::DefaultDirichletBCs: Setting Dirichlet boundary conditions
DefUtils::DefaultDirichletBCs: Dirichlet boundary conditions set
CRS_ComplexILUT: ILU(T) (Complex), Starting factorization:
CRS_ComplexILUT:  ILU(T) (Complex), NOF nonzeros:      3996294
CRS_ComplexILUT:  ILU(T) (Complex), filling (%):          280
CRS_ComplexILUT: ILU(T) (Complex), Factorization ready at (s):    15.49
IterSolver: Calling complex iterative solver
      10 0.4299E-02
      20 0.6070E-09
      21 0.9404E-10
ComputeChange: NS (ITER=1) (NRM,RELC): (  4.7846799     0.25241638     ) :: helmholtz equation
HelmholtzSolve: iter:    1 Assembly: (s)   13.38   13.38
HelmholtzSolve: iter:    1 Solve:    (s)   19.54   19.54
Loading user function library: [HelmholtzSolve]...[HelmholtzSolver_post]
SingleSolver: Attempting to call solver
SingleSolver: Solver Equation string is: internalvtuoutputsolver
ResultOutputSolver: -------------------------------------
ResultOutputSolver: Saving in unstructured VTK XML (.vtu) format
ResultOutputSolver: -------------------------------------
Loading user function library: [ResultOutputSolve]...[ResultOutputSolver_post]
MAIN: 
MAIN: -------------------------------------
MAIN:  Time: 9/9   9.0000000000000000
MAIN: Estimated time left: 33.2 seconds
MAIN: -------------------------------------
MAIN: 
SingleSolver: Attempting to call solver
SingleSolver: Solver Equation string is: helmholtz equation
HelmholtzSolve: 
HelmholtzSolve: -------------------------------------
HelmholtzSolve:  Helmholtz iteration           1
HelmholtzSolve:  Frequency (Hz):    100.00000000000000
HelmholtzSolve: -------------------------------------
HelmholtzSolve: 
HelmholtzSolve: Starting Assembly
HelmholtzSolve: Assembly:
: ..............WARNING:: GetParentMatProp: Invalid parent BodyId 0 for element 1341
WARNING:: GetParentMatProp: Invalid parent BodyId 0 for element 1514
WARNING:: GetParentMatProp: Invalid parent BodyId 0 for element 493
WARNING:: GetParentMatProp: Invalid parent BodyId 0 for element 108
WARNING:: GetParentMatProp: Invalid parent BodyId 0 for element 101
WARNING:: GetParentMatProp: Invalid parent BodyId 0 for element 106
WARNING:: GetParentMatProp: Invalid parent BodyId 0 for element 149
WARNING:: GetParentMatProp: Invalid parent BodyId 0 for element 415
WARNING:: GetParentMatProp: Invalid parent BodyId 0 for element 159
WARNING:: GetParentMatProp: Invalid parent BodyId 0 for element 617
WARNING:: GetParentMatProp: Invalid parent BodyId 0 for element 145
WARNING:: GetParentMatProp: Invalid parent BodyId 0 for element 161
WARNING:: GetParentMatProp: Invalid parent BodyId 0 for element 143
WARNING:: GetParentMatProp: Invalid parent BodyId 0 for element 122
WARNING:: GetParentMatProp: Invalid parent BodyId 0 for element 943
WARNING:: GetParentMatProp: Invalid parent BodyId 0 for element 757
WARNING:: GetParentMatProp: Invalid parent BodyId 0 for element 889
WARNING:: GetParentMatProp: Invalid parent BodyId 0 for element 641
WARNING:: GetParentMatProp: Invalid parent BodyId 0 for element 123
WARNING:: GetParentMatProp: Invalid parent BodyId 0 for element 941
WARNING:: GetParentMatProp: Invalid parent BodyId 0 for element 1295
WARNING:: GetParentMatProp: Invalid parent BodyId 0 for element 338
WARNING:: GetParentMatProp: Invalid parent BodyId 0 for element 421
WARNING:: GetParentMatProp: Invalid parent BodyId 0 for element 1483
WARNING:: GetParentMatProp: Invalid parent BodyId 0 for element 1170
WARNING:: GetParentMatProp: Invalid parent BodyId 0 for element 715
WARNING:: GetParentMatProp: Invalid parent BodyId 0 for element 1263
WARNING:: GetParentMatProp: Invalid parent BodyId 0 for element 656
WARNING:: GetParentMatProp: Invalid parent BodyId 0 for element 112
WARNING:: GetParentMatProp: Invalid parent BodyId 0 for element 339
WARNING:: GetParentMatProp: Invalid parent BodyId 0 for element 577
WARNING:: GetParentMatProp: Invalid parent BodyId 0 for element 1385
WARNING:: GetParentMatProp: Invalid parent BodyId 0 for element 147
WARNING:: GetParentMatProp: Invalid parent BodyId 0 for element 1382
WARNING:: GetParentMatProp: Invalid parent BodyId 0 for element 23
WARNING:: GetParentMatProp: Invalid parent BodyId 0 for element 1555
WARNING:: GetParentMatProp: Invalid parent BodyId 0 for element 20
WARNING:: GetParentMatProp: Invalid parent BodyId 0 for element 166
WARNING:: GetParentMatProp: Invalid parent BodyId 0 for element 1384
WARNING:: GetParentMatProp: Invalid parent BodyId 0 for element 1424
WARNING:: GetParentMatProp: Invalid parent BodyId 0 for element 588
WARNING:: GetParentMatProp: Invalid parent BodyId 0 for element 36
WARNING:: GetParentMatProp: Invalid parent BodyId 0 for element 423
WARNING:: GetParentMatProp: Invalid parent BodyId 0 for element 914
WARNING:: GetParentMatProp: Invalid parent BodyId 0 for element 524
WARNING:: GetParentMatProp: Invalid parent BodyId 0 for element 84
WARNING:: GetParentMatProp: Invalid parent BodyId 0 for element 548
WARNING:: GetParentMatProp: Invalid parent BodyId 0 for element 441
WARNING:: GetParentMatProp: Invalid parent BodyId 0 for element 1099
WARNING:: GetParentMatProp: Invalid parent BodyId 0 for element 1464
WARNING:: GetParentMatProp: Invalid parent BodyId 0 for element 483
WARNING:: GetParentMatProp: Invalid parent BodyId 0 for element 660
WARNING:: GetParentMatProp: Invalid parent BodyId 0 for element 661
WARNING:: GetParentMatProp: Invalid parent BodyId 0 for element 572
WARNING:: GetParentMatProp: Invalid parent BodyId 0 for element 1549
WARNING:: GetParentMatProp: Invalid parent BodyId 0 for element 1365
WARNING:: GetParentMatProp: Invalid parent BodyId 0 for element 1362
WARNING:: GetParentMatProp: Invalid parent BodyId 0 for element 54
WARNING:: GetParentMatProp: Invalid parent BodyId 0 for element 1331
WARNING:: GetParentMatProp: Invalid parent BodyId 0 for element 1275
WARNING:: GetParentMatProp: Invalid parent BodyId 0 for element 244
WARNING:: GetParentMatProp: Invalid parent BodyId 0 for element 1460
WARNING:: GetParentMatProp: Invalid parent BodyId 0 for element 218
WARNING:: GetParentMatProp: Invalid parent BodyId 0 for element 1307
WARNING:: GetParentMatProp: Invalid parent BodyId 0 for element 401
WARNING:: GetParentMatProp: Invalid parent BodyId 0 for element 1339
WARNING:: GetParentMatProp: Invalid parent BodyId 0 for element 845
WARNING:: GetParentMatProp: Invalid parent BodyId 0 for element 1
WARNING:: GetParentMatProp: Invalid parent BodyId 0 for element 560
WARNING:: GetParentMatProp: Invalid parent BodyId 0 for element 1340
WARNING:: GetParentMatProp: Invalid parent BodyId 0 for element 1037
WARNING:: GetParentMatProp: Invalid parent BodyId 0 for element 1448
WARNING:: GetParentMatProp: Invalid parent BodyId 0 for element 234
WARNING:: GetParentMatProp: Invalid parent BodyId 0 for element 261
WARNING:: GetParentMatProp: Invalid parent BodyId 0 for element 102
WARNING:: GetParentMatProp: Invalid parent BodyId 0 for element 616
WARNING:: GetParentMatProp: Invalid parent BodyId 0 for element 19
WARNING:: GetParentMatProp: Invalid parent BodyId 0 for element 1142
WARNING:: GetParentMatProp: Invalid parent BodyId 0 for element 31
WARNING:: GetParentMatProp: Invalid parent BodyId 0 for element 1389
WARNING:: GetParentMatProp: Invalid parent BodyId 0 for element 987
WARNING:: GetParentMatProp: Invalid parent BodyId 0 for element 1033
WARNING:: GetParentMatProp: Invalid parent BodyId 0 for element 518
WARNING:: GetParentMatProp: Invalid parent BodyId 0 for element 1134
WARNING:: GetParentMatProp: Invalid parent BodyId 0 for element 514
WARNING:: GetParentMatProp: Invalid parent BodyId 0 for element 1140
WARNING:: GetParentMatProp: Invalid parent BodyId 0 for element 1544
WARNING:: GetParentMatProp: Invalid parent BodyId 0 for element 1075
WARNING:: GetParentMatProp: Invalid parent BodyId 0 for element 828
WARNING:: GetParentMatProp: Invalid parent BodyId 0 for element 1225
WARNING:: GetParentMatProp: Invalid parent BodyId 0 for element 1072
WARNING:: GetParentMatProp: Invalid parent BodyId 0 for element 1274
WARNING:: GetParentMatProp: Invalid parent BodyId 0 for element 707
WARNING:: GetParentMatProp: Invalid parent BodyId 0 for element 995
WARNING:: GetParentMatProp: Invalid parent BodyId 0 for element 1264
WARNING:: GetParentMatProp: Invalid parent BodyId 0 for element 975
WARNING:: GetParentMatProp: Invalid parent BodyId 0 for element 999
WARNING:: GetParentMatProp: Invalid parent BodyId 0 for element 1363
WARNING:: GetParentMatProp: Invalid parent BodyId 0 for element 76
WARNING:: GetParentMatProp: Invalid parent BodyId 0 for element 1080
WARNING:: GetParentMatProp: Invalid parent BodyId 0 for element 984
WARNING:: GetParentMatProp: Invalid parent BodyId 0 for element 935
WARNING:: GetParentMatProp: Invalid parent BodyId 0 for element 1525
WARNING:: GetParentMatProp: Invalid parent BodyId 0 for element 438
WARNING:: GetParentMatProp: Invalid parent BodyId 0 for element 1491
WARNING:: GetParentMatProp: Invalid parent BodyId 0 for element 21
WARNING:: GetParentMatProp: Invalid parent BodyId 0 for element 396
WARNING:: GetParentMatProp: Invalid parent BodyId 0 for element 815
WARNING:: GetParentMatProp: Invalid parent BodyId 0 for element 667
WARNING:: GetParentMatProp: Invalid parent BodyId 0 for element 1531
WARNING:: GetParentMatProp: Invalid parent BodyId 0 for element 1133
WARNING:: GetParentMatProp: Invalid parent BodyId 0 for element 282
WARNING:: GetParentMatProp: Invalid parent BodyId 0 for element 563
WARNING:: GetParentMatProp: Invalid parent BodyId 0 for element 597
WARNING:: GetParentMatProp: Invalid parent BodyId 0 for element 330
WARNING:: GetParentMatProp: Invalid parent BodyId 0 for element 1441
WARNING:: GetParentMatProp: Invalid parent BodyId 0 for element 934
WARNING:: GetParentMatProp: Invalid parent BodyId 0 for element 1470
WARNING:: GetParentMatProp: Invalid parent BodyId 0 for element 931
WARNING:: GetParentMatProp: Invalid parent BodyId 0 for element 370
WARNING:: GetParentMatProp: Invalid parent BodyId 0 for element 288
WARNING:: GetParentMatProp: Invalid parent BodyId 0 for element 1289
WARNING:: GetParentMatProp: Invalid parent BodyId 0 for element 320
WARNING:: GetParentMatProp: Invalid parent BodyId 0 for element 275
WARNING:: GetParentMatProp: Invalid parent BodyId 0 for element 762
WARNING:: GetParentMatProp: Invalid parent BodyId 0 for element 552
WARNING:: GetParentMatProp: Invalid parent BodyId 0 for element 551
WARNING:: GetParentMatProp: Invalid parent BodyId 0 for element 738
WARNING:: GetParentMatProp: Invalid parent BodyId 0 for element 1125
WARNING:: GetParentMatProp: Invalid parent BodyId 0 for element 1244
WARNING:: GetParentMatProp: Invalid parent BodyId 0 for element 645
WARNING:: GetParentMatProp: Invalid parent BodyId 0 for element 313
WARNING:: GetParentMatProp: Invalid parent BodyId 0 for element 672
WARNING:: GetParentMatProp: Invalid parent BodyId 0 for element 1345
WARNING:: GetParentMatProp: Invalid parent BodyId 0 for element 375
WARNING:: GetParentMatProp: Invalid parent BodyId 0 for element 517
WARNING:: GetParentMatProp: Invalid parent BodyId 0 for element 1509
WARNING:: GetParentMatProp: Invalid parent BodyId 0 for element 336
WARNING:: GetParentMatProp: Invalid parent BodyId 0 for element 1417
WARNING:: GetParentMatProp: Invalid parent BodyId 0 for element 1008
WARNING:: GetParentMatProp: Invalid parent BodyId 0 for element 808
WARNING:: GetParentMatProp: Invalid parent BodyId 0 for element 1497
WARNING:: GetParentMatProp: Invalid parent BodyId 0 for element 1536
WARNING:: GetParentMatProp: Invalid parent BodyId 0 for element 1392
WARNING:: GetParentMatProp: Invalid parent BodyId 0 for element 488
WARNING:: GetParentMatProp: Invalid parent BodyId 0 for element 249
WARNING:: GetParentMatProp: Invalid parent BodyId 0 for element 440
WARNING:: GetParentMatProp: Invalid parent BodyId 0 for element 906
WARNING:: GetParentMatProp: Invalid parent BodyId 0 for element 400
WARNING:: GetParentMatProp: Invalid parent BodyId 0 for element 1486
WARNING:: GetParentMatProp: Invalid parent BodyId 0 for element 1028
WARNING:: GetParentMatProp: Invalid parent BodyId 0 for element 1126
WARNING:: GetParentMatProp: Invalid parent BodyId 0 for element 139
WARNING:: GetParentMatProp: Invalid parent BodyId 0 for element 899
WARNING:: GetParentMatProp: Invalid parent BodyId 0 for element 703
WARNING:: GetParentMatProp: Invalid parent BodyId 0 for element 1361
WARNING:: GetParentMatProp: Invalid parent BodyId 0 for element 1546
WARNING:: GetParentMatProp: Invalid parent BodyId 0 for element 1221
WARNING:: GetParentMatProp: Invalid parent BodyId 0 for element 1300
WARNING:: GetParentMatProp: Invalid parent BodyId 0 for element 239
WARNING:: GetParentMatProp: Invalid parent BodyId 0 for element 200
WARNING:: GetParentMatProp: Invalid parent BodyId 0 for element 1237
WARNING:: GetParentMatProp: Invalid parent BodyId 0 for element 1319
WARNING:: GetParentMatProp: Invalid parent BodyId 0 for element 1393
WARNING:: GetParentMatProp: Invalid parent BodyId 0 for element 1216
WARNING:: GetParentMatProp: Invalid parent BodyId 0 for element 427
WARNING:: GetParentMatProp: Invalid parent BodyId 0 for element 353
WARNING:: GetParentMatProp: Invalid parent BodyId 0 for element 666
WARNING:: GetParentMatProp: Invalid parent BodyId 0 for element 711
WARNING:: GetParentMatProp: Invalid parent BodyId 0 for element 949
WARNING:: GetParentMatProp: Invalid parent BodyId 0 for element 1356
WARNING:: GetParentMatProp: Invalid parent BodyId 0 for element 506
WARNING:: GetParentMatProp: Invalid parent BodyId 0 for element 55
WARNING:: GetParentMatProp: Invalid parent BodyId 0 for element 52
WARNING:: GetParentMatProp: Invalid parent BodyId 0 for element 1357
WARNING:: GetParentMatProp: Invalid parent BodyId 0 for element 1488
WARNING:: GetParentMatProp: Invalid parent BodyId 0 for element 601
WARNING:: GetParentMatProp: Invalid parent BodyId 0 for element 810
WARNING:: GetParentMatProp: Invalid parent BodyId 0 for element 521
WARNING:: GetParentMatProp: Invalid parent BodyId 0 for element 890
WARNING:: GetParentMatProp: Invalid parent BodyId 0 for element 426
WARNING:: GetParentMatProp: Invalid parent BodyId 0 for element 281
WARNING:: GetParentMatProp: Invalid parent BodyId 0 for element 1112
WARNING:: GetParentMatProp: Invalid parent BodyId 0 for element 1029
WARNING:: GetParentMatProp: Invalid parent BodyId 0 for element 920
WARNING:: GetParentMatProp: Invalid parent BodyId 0 for element 625
WARNING:: GetParentMatProp: Invalid parent BodyId 0 for element 785
WARNING:: GetParentMatProp: Invalid parent BodyId 0 for element 1019
WARNING:: GetParentMatProp: Invalid parent BodyId 0 for element 915
WARNING:: GetParentMatProp: Invalid parent BodyId 0 for element 1519
WARNING:: GetParentMatProp: Invalid parent BodyId 0 for element 609
WARNING:: GetParentMatProp: Invalid parent BodyId 0 for element 1116
WARNING:: GetParentMatProp: Invalid parent BodyId 0 for element 1487
WARNING:: GetParentMatProp: Invalid parent BodyId 0 for element 1151
WARNING:: GetParentMatProp: Invalid parent BodyId 0 for element 997
WARNING:: GetParentMatProp: Invalid parent BodyId 0 for element 653
WARNING:: GetParentMatProp: Invalid parent BodyId 0 for element 944
WARNING:: GetParentMatProp: Invalid parent BodyId 0 for element 1187
WARNING:: GetParentMatProp: Invalid parent BodyId 0 for element 746
WARNING:: GetParentMatProp: Invalid parent BodyId 0 for element 913
WARNING:: GetParentMatProp: Invalid parent BodyId 0 for element 800
WARNING:: GetParentMatProp: Invalid parent BodyId 0 for element 231
WARNING:: GetParentMatProp: Invalid parent BodyId 0 for element 1256
WARNING:: GetParentMatProp: Invalid parent BodyId 0 for element 1148
WARNING:: GetParentMatProp: Invalid parent BodyId 0 for element 1213
WARNING:: GetParentMatProp: Invalid parent BodyId 0 for element 1146
WARNING:: GetParentMatProp: Invalid parent BodyId 0 for element 1052
WARNING:: GetParentMatProp: Invalid parent BodyId 0 for element 663
WARNING:: GetParentMatProp: Invalid parent BodyId 0 for element 1013
WARNING:: GetParentMatProp: Invalid parent BodyId 0 for element 964
WARNING:: GetParentMatProp: Invalid parent BodyId 0 for element 1245
WARNING:: GetParentMatProp: Invalid parent BodyId 0 for element 1227
WARNING:: GetParentMatProp: Invalid parent BodyId 0 for element 1022
WARNING:: GetParentMatProp: Invalid parent BodyId 0 for element 1502
WARNING:: GetParentMatProp: Invalid parent BodyId 0 for element 299
WARNING:: GetParentMatProp: Invalid parent BodyId 0 for element 737
WARNING:: GetParentMatProp: Invalid parent BodyId 0 for element 1489
WARNING:: GetParentMatProp: Invalid parent BodyId 0 for element 307
WARNING:: GetParentMatProp: Invalid parent BodyId 0 for element 1358
WARNING:: GetParentMatProp: Invalid parent BodyId 0 for element 871
WARNING:: GetParentMatProp: Invalid parent BodyId 0 for element 1121
WARNING:: GetParentMatProp: Invalid parent BodyId 0 for element 409
WARNING:: GetParentMatProp: Invalid parent BodyId 0 for element 1539
WARNING:: GetParentMatProp: Invalid parent BodyId 0 for element 245
WARNING:: GetParentMatProp: Invalid parent BodyId 0 for element 972
WARNING:: GetParentMatProp: Invalid parent BodyId 0 for element 925
WARNING:: GetParentMatProp: Invalid parent BodyId 0 for element 797
WARNING:: GetParentMatProp: Invalid parent BodyId 0 for element 194
WARNING:: GetParentMatProp: Invalid parent BodyId 0 for element 205
WARNING:: GetParentMatProp: Invalid parent BodyId 0 for element 873
WARNING:: GetParentMatProp: Invalid parent BodyId 0 for element 636
WARNING:: GetParentMatProp: Invalid parent BodyId 0 for element 1083
WARNING:: GetParentMatProp: Invalid parent BodyId 0 for element 17
WARNING:: GetParentMatProp: Invalid parent BodyId 0 for element 1458
Assembly done
DefUtils::DefaultDirichletBCs: Setting Dirichlet boundary conditions
DefUtils::DefaultDirichletBCs: Dirichlet boundary conditions set
CRS_ComplexILUT: ILU(T) (Complex), Starting factorization:
CRS_ComplexILUT:  ILU(T) (Complex), NOF nonzeros:      4044821
CRS_ComplexILUT:  ILU(T) (Complex), filling (%):          284
CRS_ComplexILUT: ILU(T) (Complex), Factorization ready at (s):    17.57
IterSolver: Calling complex iterative solver
      10 0.7651E-02
      20 0.2704E-05
      28 0.3971E-10
ComputeChange: NS (ITER=1) (NRM,RELC): (  5.9213929     0.21234919     ) :: helmholtz equation
HelmholtzSolve: iter:    1 Assembly: (s)   14.70   14.70
HelmholtzSolve: iter:    1 Solve:    (s)   22.41   22.41
Loading user function library: [HelmholtzSolve]...[HelmholtzSolver_post]
SingleSolver: Attempting to call solver
SingleSolver: Solver Equation string is: internalvtuoutputsolver
ResultOutputSolver: -------------------------------------
ResultOutputSolver: Saving in unstructured VTK XML (.vtu) format
ResultOutputSolver: -------------------------------------
Loading user function library: [ResultOutputSolve]...[ResultOutputSolver_post]
ElmerSolver: *** Elmer Solver: ALL DONE ***
ElmerSolver: The end
SOLVER TOTAL TIME(CPU,REAL):       317.74      322.30
ELMER SOLVER FINISHED AT: 2020/05/02 16:32:34