ELMER SOLVER (v 8.3) STARTED AT: 2020/03/07 15:56:27
ParCommInit:  Initialize #PEs:            1
MAIN: OMP_NUM_THREADS not set. Using only 1 thread per task.
MAIN: 
MAIN: =============================================================
MAIN: ElmerSolver finite element software, Welcome!
MAIN: This program is free software licensed under (L)GPL
MAIN: Copyright 1st April 1995 - , CSC - IT Center for Science Ltd.
MAIN: Webpage http://www.csc.fi/elmer, Email elmeradm@csc.fi
MAIN: Version: 8.3 (Rev: f90766a, Compiled: 2018-10-31)
MAIN:  Running one task without MPI parallelization.
MAIN:  Running with just one thread per task.
MAIN:  HYPRE library linked in.
MAIN:  MUMPS library linked in.
MAIN:  Lua interpreted linked in.
MAIN: =============================================================
MAIN: 
MAIN: 
MAIN: -------------------------------------
MAIN: Reading Model: case.sif
LoadInputFile: Scanning input file: case.sif
LoadInputFile: Loading input file: case.sif
Loading user function library: [HelmholtzSolve]...[HelmholtzSolver_Init0]
LoadMesh: Base mesh name: ./.
LoadMesh: Scaling coordinates: 1.000E-03 1.000E-03 1.000E-03
ERROR:: ElementMetric: Degenerate 3D element: -1
ElementMetric: Body Id: 0 DetG:   0.000E+00
ElementMetric: Node: 1 Coord:   0.000E+00   0.000E+00   0.000E+00
ElementMetric: Node: 2 Coord:   1.000E+00   0.000E+00   0.000E+00
ElementMetric: Node: 3 Coord:   0.000E+00   1.000E+00   0.000E+00
ElementMetric: Node: 4 Coord:   0.000E+00   0.000E+00   1.000E+00
ElementMetric: Node: 5 Coord:   5.000E-01   0.000E+00   0.000E+00
ElementMetric: Node: 6 Coord:   5.000E-01   5.000E-01   0.000E+00
ElementMetric: Node: 7 Coord:   0.000E+00   5.000E-01   0.000E+00
ElementMetric: Node: 8 Coord:   0.000E+00   0.000E+00   5.000E-01
ElementMetric: Node: 9 Coord:   5.000E-01   0.000E+00   5.000E-01
ElementMetric: Node: 10 Coord:   0.000E+00   5.000E-01   5.000E-01
ElementMetric: Node: 2 dCoord:   1.000E+00   0.000E+00   0.000E+00
ElementMetric: Node: 3 dCoord:   0.000E+00   1.000E+00   0.000E+00
ElementMetric: Node: 4 dCoord:   0.000E+00   0.000E+00   1.000E+00
ElementMetric: Node: 5 dCoord:   5.000E-01   0.000E+00   0.000E+00
ElementMetric: Node: 6 dCoord:   5.000E-01   5.000E-01   0.000E+00
ElementMetric: Node: 7 dCoord:   0.000E+00   5.000E-01   0.000E+00
ElementMetric: Node: 8 dCoord:   0.000E+00   0.000E+00   5.000E-01
ElementMetric: Node: 9 dCoord:   5.000E-01   0.000E+00   5.000E-01
ElementMetric: Node: 10 dCoord:   0.000E+00   5.000E-01   5.000E-01
ElementMetric: Element dim larger than meshdim: 3 vs. 0
ERROR:: ElementMetric: Degenerate 3D element: -1
ElementMetric: Body Id: 0 DetG:   0.000E+00
ElementMetric: Node: 1 Coord:   0.000E+00   0.000E+00   0.000E+00
ElementMetric: Node: 2 Coord:   1.000E+00   0.000E+00   0.000E+00
ElementMetric: Node: 3 Coord:   0.000E+00   1.000E+00   0.000E+00
ElementMetric: Node: 4 Coord:   0.000E+00   0.000E+00   1.000E+00
ElementMetric: Node: 5 Coord:   5.000E-01   0.000E+00   0.000E+00
ElementMetric: Node: 6 Coord:   5.000E-01   5.000E-01   0.000E+00
ElementMetric: Node: 7 Coord:   0.000E+00   5.000E-01   0.000E+00
ElementMetric: Node: 8 Coord:   0.000E+00   0.000E+00   5.000E-01
ElementMetric: Node: 9 Coord:   5.000E-01   0.000E+00   5.000E-01
ElementMetric: Node: 10 Coord:   0.000E+00   5.000E-01   5.000E-01
ElementMetric: Node: 2 dCoord:   1.000E+00   0.000E+00   0.000E+00
ElementMetric: Node: 3 dCoord:   0.000E+00   1.000E+00   0.000E+00
ElementMetric: Node: 4 dCoord:   0.000E+00   0.000E+00   1.000E+00
ElementMetric: Node: 5 dCoord:   5.000E-01   0.000E+00   0.000E+00
ElementMetric: Node: 6 dCoord:   5.000E-01   5.000E-01   0.000E+00
ElementMetric: Node: 7 dCoord:   0.000E+00   5.000E-01   0.000E+00
ElementMetric: Node: 8 dCoord:   0.000E+00   0.000E+00   5.000E-01
ElementMetric: Node: 9 dCoord:   5.000E-01   0.000E+00   5.000E-01
ElementMetric: Node: 10 dCoord:   0.000E+00   5.000E-01   5.000E-01
ElementMetric: Element dim larger than meshdim: 3 vs. 0
ERROR:: ElementMetric: Degenerate 3D element: -1
ElementMetric: Body Id: 0 DetG:   0.000E+00
ElementMetric: Node: 1 Coord:   0.000E+00   0.000E+00   0.000E+00
ElementMetric: Node: 2 Coord:   1.000E+00   0.000E+00   0.000E+00
ElementMetric: Node: 3 Coord:   0.000E+00   1.000E+00   0.000E+00
ElementMetric: Node: 4 Coord:   0.000E+00   0.000E+00   1.000E+00
ElementMetric: Node: 5 Coord:   5.000E-01   0.000E+00   0.000E+00
ElementMetric: Node: 6 Coord:   5.000E-01   5.000E-01   0.000E+00
ElementMetric: Node: 7 Coord:   0.000E+00   5.000E-01   0.000E+00
ElementMetric: Node: 8 Coord:   0.000E+00   0.000E+00   5.000E-01
ElementMetric: Node: 9 Coord:   5.000E-01   0.000E+00   5.000E-01
ElementMetric: Node: 10 Coord:   0.000E+00   5.000E-01   5.000E-01
ElementMetric: Node: 2 dCoord:   1.000E+00   0.000E+00   0.000E+00
ElementMetric: Node: 3 dCoord:   0.000E+00   1.000E+00   0.000E+00
ElementMetric: Node: 4 dCoord:   0.000E+00   0.000E+00   1.000E+00
ElementMetric: Node: 5 dCoord:   5.000E-01   0.000E+00   0.000E+00
ElementMetric: Node: 6 dCoord:   5.000E-01   5.000E-01   0.000E+00
ElementMetric: Node: 7 dCoord:   0.000E+00   5.000E-01   0.000E+00
ElementMetric: Node: 8 dCoord:   0.000E+00   0.000E+00   5.000E-01
ElementMetric: Node: 9 dCoord:   5.000E-01   0.000E+00   5.000E-01
ElementMetric: Node: 10 dCoord:   0.000E+00   5.000E-01   5.000E-01
ElementMetric: Element dim larger than meshdim: 3 vs. 0
ERROR:: ElementMetric: Degenerate 3D element: -1
ElementMetric: Body Id: 0 DetG:   0.000E+00
ElementMetric: Node: 1 Coord:   0.000E+00   0.000E+00   0.000E+00
ElementMetric: Node: 2 Coord:   1.000E+00   0.000E+00   0.000E+00
ElementMetric: Node: 3 Coord:   0.000E+00   1.000E+00   0.000E+00
ElementMetric: Node: 4 Coord:   0.000E+00   0.000E+00   1.000E+00
ElementMetric: Node: 5 Coord:   5.000E-01   0.000E+00   0.000E+00
ElementMetric: Node: 6 Coord:   5.000E-01   5.000E-01   0.000E+00
ElementMetric: Node: 7 Coord:   0.000E+00   5.000E-01   0.000E+00
ElementMetric: Node: 8 Coord:   0.000E+00   0.000E+00   5.000E-01
ElementMetric: Node: 9 Coord:   5.000E-01   0.000E+00   5.000E-01
ElementMetric: Node: 10 Coord:   0.000E+00   5.000E-01   5.000E-01
ElementMetric: Node: 2 dCoord:   1.000E+00   0.000E+00   0.000E+00
ElementMetric: Node: 3 dCoord:   0.000E+00   1.000E+00   0.000E+00
ElementMetric: Node: 4 dCoord:   0.000E+00   0.000E+00   1.000E+00
ElementMetric: Node: 5 dCoord:   5.000E-01   0.000E+00   0.000E+00
ElementMetric: Node: 6 dCoord:   5.000E-01   5.000E-01   0.000E+00
ElementMetric: Node: 7 dCoord:   0.000E+00   5.000E-01   0.000E+00
ElementMetric: Node: 8 dCoord:   0.000E+00   0.000E+00   5.000E-01
ElementMetric: Node: 9 dCoord:   5.000E-01   0.000E+00   5.000E-01
ElementMetric: Node: 10 dCoord:   0.000E+00   5.000E-01   5.000E-01
ElementMetric: Element dim larger than meshdim: 3 vs. 0
ERROR:: ElementMetric: Degenerate 3D element: -1
ElementMetric: Body Id: 0 DetG:   0.000E+00
ElementMetric: Node: 1 Coord:   0.000E+00   0.000E+00   0.000E+00
ElementMetric: Node: 2 Coord:   1.000E+00   0.000E+00   0.000E+00
ElementMetric: Node: 3 Coord:   0.000E+00   1.000E+00   0.000E+00
ElementMetric: Node: 4 Coord:   0.000E+00   0.000E+00   1.000E+00
ElementMetric: Node: 5 Coord:   5.000E-01   0.000E+00   0.000E+00
ElementMetric: Node: 6 Coord:   5.000E-01   5.000E-01   0.000E+00
ElementMetric: Node: 7 Coord:   0.000E+00   5.000E-01   0.000E+00
ElementMetric: Node: 8 Coord:   0.000E+00   0.000E+00   5.000E-01
ElementMetric: Node: 9 Coord:   5.000E-01   0.000E+00   5.000E-01
ElementMetric: Node: 10 Coord:   0.000E+00   5.000E-01   5.000E-01
ElementMetric: Node: 2 dCoord:   1.000E+00   0.000E+00   0.000E+00
ElementMetric: Node: 3 dCoord:   0.000E+00   1.000E+00   0.000E+00
ElementMetric: Node: 4 dCoord:   0.000E+00   0.000E+00   1.000E+00
ElementMetric: Node: 5 dCoord:   5.000E-01   0.000E+00   0.000E+00
ElementMetric: Node: 6 dCoord:   5.000E-01   5.000E-01   0.000E+00
ElementMetric: Node: 7 dCoord:   0.000E+00   5.000E-01   0.000E+00
ElementMetric: Node: 8 dCoord:   0.000E+00   0.000E+00   5.000E-01
ElementMetric: Node: 9 dCoord:   5.000E-01   0.000E+00   5.000E-01
ElementMetric: Node: 10 dCoord:   0.000E+00   5.000E-01   5.000E-01
ElementMetric: Element dim larger than meshdim: 3 vs. 0
ERROR:: ElementMetric: Degenerate 3D element: -1
ElementMetric: Body Id: 0 DetG:   0.000E+00
ElementMetric: Node: 1 Coord:   0.000E+00   0.000E+00   0.000E+00
ElementMetric: Node: 2 Coord:   1.000E+00   0.000E+00   0.000E+00
ElementMetric: Node: 3 Coord:   0.000E+00   1.000E+00   0.000E+00
ElementMetric: Node: 4 Coord:   0.000E+00   0.000E+00   1.000E+00
ElementMetric: Node: 5 Coord:   5.000E-01   0.000E+00   0.000E+00
ElementMetric: Node: 6 Coord:   5.000E-01   5.000E-01   0.000E+00
ElementMetric: Node: 7 Coord:   0.000E+00   5.000E-01   0.000E+00
ElementMetric: Node: 8 Coord:   0.000E+00   0.000E+00   5.000E-01
ElementMetric: Node: 9 Coord:   5.000E-01   0.000E+00   5.000E-01
ElementMetric: Node: 10 Coord:   0.000E+00   5.000E-01   5.000E-01
ElementMetric: Node: 2 dCoord:   1.000E+00   0.000E+00   0.000E+00
ElementMetric: Node: 3 dCoord:   0.000E+00   1.000E+00   0.000E+00
ElementMetric: Node: 4 dCoord:   0.000E+00   0.000E+00   1.000E+00
ElementMetric: Node: 5 dCoord:   5.000E-01   0.000E+00   0.000E+00
ElementMetric: Node: 6 dCoord:   5.000E-01   5.000E-01   0.000E+00
ElementMetric: Node: 7 dCoord:   0.000E+00   5.000E-01   0.000E+00
ElementMetric: Node: 8 dCoord:   0.000E+00   0.000E+00   5.000E-01
ElementMetric: Node: 9 dCoord:   5.000E-01   0.000E+00   5.000E-01
ElementMetric: Node: 10 dCoord:   0.000E+00   5.000E-01   5.000E-01
ElementMetric: Element dim larger than meshdim: 3 vs. 0
ERROR:: ElementMetric: Degenerate 3D element: -1
ElementMetric: Body Id: 0 DetG:   0.000E+00
ElementMetric: Node: 1 Coord:   0.000E+00   0.000E+00   0.000E+00
ElementMetric: Node: 2 Coord:   1.000E+00   0.000E+00   0.000E+00
ElementMetric: Node: 3 Coord:   0.000E+00   1.000E+00   0.000E+00
ElementMetric: Node: 4 Coord:   0.000E+00   0.000E+00   1.000E+00
ElementMetric: Node: 5 Coord:   5.000E-01   0.000E+00   0.000E+00
ElementMetric: Node: 6 Coord:   5.000E-01   5.000E-01   0.000E+00
ElementMetric: Node: 7 Coord:   0.000E+00   5.000E-01   0.000E+00
ElementMetric: Node: 8 Coord:   0.000E+00   0.000E+00   5.000E-01
ElementMetric: Node: 9 Coord:   5.000E-01   0.000E+00   5.000E-01
ElementMetric: Node: 10 Coord:   0.000E+00   5.000E-01   5.000E-01
ElementMetric: Node: 2 dCoord:   1.000E+00   0.000E+00   0.000E+00
ElementMetric: Node: 3 dCoord:   0.000E+00   1.000E+00   0.000E+00
ElementMetric: Node: 4 dCoord:   0.000E+00   0.000E+00   1.000E+00
ElementMetric: Node: 5 dCoord:   5.000E-01   0.000E+00   0.000E+00
ElementMetric: Node: 6 dCoord:   5.000E-01   5.000E-01   0.000E+00
ElementMetric: Node: 7 dCoord:   0.000E+00   5.000E-01   0.000E+00
ElementMetric: Node: 8 dCoord:   0.000E+00   0.000E+00   5.000E-01
ElementMetric: Node: 9 dCoord:   5.000E-01   0.000E+00   5.000E-01
ElementMetric: Node: 10 dCoord:   0.000E+00   5.000E-01   5.000E-01
ElementMetric: Element dim larger than meshdim: 3 vs. 0
ERROR:: ElementMetric: Degenerate 3D element: -1
ElementMetric: Body Id: 0 DetG:   0.000E+00
ElementMetric: Node: 1 Coord:   0.000E+00   0.000E+00   0.000E+00
ElementMetric: Node: 2 Coord:   1.000E+00   0.000E+00   0.000E+00
ElementMetric: Node: 3 Coord:   0.000E+00   1.000E+00   0.000E+00
ElementMetric: Node: 4 Coord:   0.000E+00   0.000E+00   1.000E+00
ElementMetric: Node: 5 Coord:   5.000E-01   0.000E+00   0.000E+00
ElementMetric: Node: 6 Coord:   5.000E-01   5.000E-01   0.000E+00
ElementMetric: Node: 7 Coord:   0.000E+00   5.000E-01   0.000E+00
ElementMetric: Node: 8 Coord:   0.000E+00   0.000E+00   5.000E-01
ElementMetric: Node: 9 Coord:   5.000E-01   0.000E+00   5.000E-01
ElementMetric: Node: 10 Coord:   0.000E+00   5.000E-01   5.000E-01
ElementMetric: Node: 2 dCoord:   1.000E+00   0.000E+00   0.000E+00
ElementMetric: Node: 3 dCoord:   0.000E+00   1.000E+00   0.000E+00
ElementMetric: Node: 4 dCoord:   0.000E+00   0.000E+00   1.000E+00
ElementMetric: Node: 5 dCoord:   5.000E-01   0.000E+00   0.000E+00
ElementMetric: Node: 6 dCoord:   5.000E-01   5.000E-01   0.000E+00
ElementMetric: Node: 7 dCoord:   0.000E+00   5.000E-01   0.000E+00
ElementMetric: Node: 8 dCoord:   0.000E+00   0.000E+00   5.000E-01
ElementMetric: Node: 9 dCoord:   5.000E-01   0.000E+00   5.000E-01
ElementMetric: Node: 10 dCoord:   0.000E+00   5.000E-01   5.000E-01
ElementMetric: Element dim larger than meshdim: 3 vs. 0
ERROR:: ElementMetric: Degenerate 3D element: -1
ElementMetric: Body Id: 0 DetG:   0.000E+00
ElementMetric: Node: 1 Coord:   0.000E+00   0.000E+00   0.000E+00
ElementMetric: Node: 2 Coord:   1.000E+00   0.000E+00   0.000E+00
ElementMetric: Node: 3 Coord:   0.000E+00   1.000E+00   0.000E+00
ElementMetric: Node: 4 Coord:   0.000E+00   0.000E+00   1.000E+00
ElementMetric: Node: 5 Coord:   5.000E-01   0.000E+00   0.000E+00
ElementMetric: Node: 6 Coord:   5.000E-01   5.000E-01   0.000E+00
ElementMetric: Node: 7 Coord:   0.000E+00   5.000E-01   0.000E+00
ElementMetric: Node: 8 Coord:   0.000E+00   0.000E+00   5.000E-01
ElementMetric: Node: 9 Coord:   5.000E-01   0.000E+00   5.000E-01
ElementMetric: Node: 10 Coord:   0.000E+00   5.000E-01   5.000E-01
ElementMetric: Node: 2 dCoord:   1.000E+00   0.000E+00   0.000E+00
ElementMetric: Node: 3 dCoord:   0.000E+00   1.000E+00   0.000E+00
ElementMetric: Node: 4 dCoord:   0.000E+00   0.000E+00   1.000E+00
ElementMetric: Node: 5 dCoord:   5.000E-01   0.000E+00   0.000E+00
ElementMetric: Node: 6 dCoord:   5.000E-01   5.000E-01   0.000E+00
ElementMetric: Node: 7 dCoord:   0.000E+00   5.000E-01   0.000E+00
ElementMetric: Node: 8 dCoord:   0.000E+00   0.000E+00   5.000E-01
ElementMetric: Node: 9 dCoord:   5.000E-01   0.000E+00   5.000E-01
ElementMetric: Node: 10 dCoord:   0.000E+00   5.000E-01   5.000E-01
ElementMetric: Element dim larger than meshdim: 3 vs. 0
ERROR:: ElementMetric: Degenerate 3D element: -1
ElementMetric: Body Id: 0 DetG:   0.000E+00
ElementMetric: Node: 1 Coord:   0.000E+00   0.000E+00   0.000E+00
ElementMetric: Node: 2 Coord:   1.000E+00   0.000E+00   0.000E+00
ElementMetric: Node: 3 Coord:   0.000E+00   1.000E+00   0.000E+00
ElementMetric: Node: 4 Coord:   0.000E+00   0.000E+00   1.000E+00
ElementMetric: Node: 5 Coord:   5.000E-01   0.000E+00   0.000E+00
ElementMetric: Node: 6 Coord:   5.000E-01   5.000E-01   0.000E+00
ElementMetric: Node: 7 Coord:   0.000E+00   5.000E-01   0.000E+00
ElementMetric: Node: 8 Coord:   0.000E+00   0.000E+00   5.000E-01
ElementMetric: Node: 9 Coord:   5.000E-01   0.000E+00   5.000E-01
ElementMetric: Node: 10 Coord:   0.000E+00   5.000E-01   5.000E-01
ElementMetric: Node: 2 dCoord:   1.000E+00   0.000E+00   0.000E+00
ElementMetric: Node: 3 dCoord:   0.000E+00   1.000E+00   0.000E+00
ElementMetric: Node: 4 dCoord:   0.000E+00   0.000E+00   1.000E+00
ElementMetric: Node: 5 dCoord:   5.000E-01   0.000E+00   0.000E+00
ElementMetric: Node: 6 dCoord:   5.000E-01   5.000E-01   0.000E+00
ElementMetric: Node: 7 dCoord:   0.000E+00   5.000E-01   0.000E+00
ElementMetric: Node: 8 dCoord:   0.000E+00   0.000E+00   5.000E-01
ElementMetric: Node: 9 dCoord:   5.000E-01   0.000E+00   5.000E-01
ElementMetric: Node: 10 dCoord:   0.000E+00   5.000E-01   5.000E-01
ElementMetric: Element dim larger than meshdim: 3 vs. 0
ERROR:: ElementMetric: Degenerate 3D element: -1
ElementMetric: Body Id: 0 DetG:   0.000E+00
ElementMetric: Node: 1 Coord:   0.000E+00   0.000E+00   0.000E+00
ElementMetric: Node: 2 Coord:   1.000E+00   0.000E+00   0.000E+00
ElementMetric: Node: 3 Coord:   0.000E+00   1.000E+00   0.000E+00
ElementMetric: Node: 4 Coord:   0.000E+00   0.000E+00   1.000E+00
ElementMetric: Node: 5 Coord:   5.000E-01   0.000E+00   0.000E+00
ElementMetric: Node: 6 Coord:   5.000E-01   5.000E-01   0.000E+00
ElementMetric: Node: 7 Coord:   0.000E+00   5.000E-01   0.000E+00
ElementMetric: Node: 8 Coord:   0.000E+00   0.000E+00   5.000E-01
ElementMetric: Node: 9 Coord:   5.000E-01   0.000E+00   5.000E-01
ElementMetric: Node: 10 Coord:   0.000E+00   5.000E-01   5.000E-01
ElementMetric: Node: 2 dCoord:   1.000E+00   0.000E+00   0.000E+00
ElementMetric: Node: 3 dCoord:   0.000E+00   1.000E+00   0.000E+00
ElementMetric: Node: 4 dCoord:   0.000E+00   0.000E+00   1.000E+00
ElementMetric: Node: 5 dCoord:   5.000E-01   0.000E+00   0.000E+00
ElementMetric: Node: 6 dCoord:   5.000E-01   5.000E-01   0.000E+00
ElementMetric: Node: 7 dCoord:   0.000E+00   5.000E-01   0.000E+00
ElementMetric: Node: 8 dCoord:   0.000E+00   0.000E+00   5.000E-01
ElementMetric: Node: 9 dCoord:   5.000E-01   0.000E+00   5.000E-01
ElementMetric: Node: 10 dCoord:   0.000E+00   5.000E-01   5.000E-01
ElementMetric: Element dim larger than meshdim: 3 vs. 0
ERROR:: ElementMetric: Degenerate 3D element: -1
ElementMetric: Body Id: 0 DetG:   0.000E+00
ElementMetric: Node: 1 Coord:   0.000E+00   0.000E+00   0.000E+00
ElementMetric: Node: 2 Coord:   1.000E+00   0.000E+00   0.000E+00
ElementMetric: Node: 3 Coord:   0.000E+00   1.000E+00   0.000E+00
ElementMetric: Node: 4 Coord:   0.000E+00   0.000E+00   1.000E+00
ElementMetric: Node: 5 Coord:   5.000E-01   0.000E+00   0.000E+00
ElementMetric: Node: 6 Coord:   5.000E-01   5.000E-01   0.000E+00
ElementMetric: Node: 7 Coord:   0.000E+00   5.000E-01   0.000E+00
ElementMetric: Node: 8 Coord:   0.000E+00   0.000E+00   5.000E-01
ElementMetric: Node: 9 Coord:   5.000E-01   0.000E+00   5.000E-01
ElementMetric: Node: 10 Coord:   0.000E+00   5.000E-01   5.000E-01
ElementMetric: Node: 2 dCoord:   1.000E+00   0.000E+00   0.000E+00
ElementMetric: Node: 3 dCoord:   0.000E+00   1.000E+00   0.000E+00
ElementMetric: Node: 4 dCoord:   0.000E+00   0.000E+00   1.000E+00
ElementMetric: Node: 5 dCoord:   5.000E-01   0.000E+00   0.000E+00
ElementMetric: Node: 6 dCoord:   5.000E-01   5.000E-01   0.000E+00
ElementMetric: Node: 7 dCoord:   0.000E+00   5.000E-01   0.000E+00
ElementMetric: Node: 8 dCoord:   0.000E+00   0.000E+00   5.000E-01
ElementMetric: Node: 9 dCoord:   5.000E-01   0.000E+00   5.000E-01
ElementMetric: Node: 10 dCoord:   0.000E+00   5.000E-01   5.000E-01
ElementMetric: Element dim larger than meshdim: 3 vs. 0
ERROR:: ElementMetric: Degenerate 3D element: -1
ElementMetric: Body Id: 0 DetG:   0.000E+00
ElementMetric: Node: 1 Coord:   0.000E+00   0.000E+00   0.000E+00
ElementMetric: Node: 2 Coord:   1.000E+00   0.000E+00   0.000E+00
ElementMetric: Node: 3 Coord:   0.000E+00   1.000E+00   0.000E+00
ElementMetric: Node: 4 Coord:   0.000E+00   0.000E+00   1.000E+00
ElementMetric: Node: 5 Coord:   5.000E-01   0.000E+00   0.000E+00
ElementMetric: Node: 6 Coord:   5.000E-01   5.000E-01   0.000E+00
ElementMetric: Node: 7 Coord:   0.000E+00   5.000E-01   0.000E+00
ElementMetric: Node: 8 Coord:   0.000E+00   0.000E+00   5.000E-01
ElementMetric: Node: 9 Coord:   5.000E-01   0.000E+00   5.000E-01
ElementMetric: Node: 10 Coord:   0.000E+00   5.000E-01   5.000E-01
ElementMetric: Node: 2 dCoord:   1.000E+00   0.000E+00   0.000E+00
ElementMetric: Node: 3 dCoord:   0.000E+00   1.000E+00   0.000E+00
ElementMetric: Node: 4 dCoord:   0.000E+00   0.000E+00   1.000E+00
ElementMetric: Node: 5 dCoord:   5.000E-01   0.000E+00   0.000E+00
ElementMetric: Node: 6 dCoord:   5.000E-01   5.000E-01   0.000E+00
ElementMetric: Node: 7 dCoord:   0.000E+00   5.000E-01   0.000E+00
ElementMetric: Node: 8 dCoord:   0.000E+00   0.000E+00   5.000E-01
ElementMetric: Node: 9 dCoord:   5.000E-01   0.000E+00   5.000E-01
ElementMetric: Node: 10 dCoord:   0.000E+00   5.000E-01   5.000E-01
ElementMetric: Element dim larger than meshdim: 3 vs. 0
ERROR:: ElementMetric: Degenerate 3D element: -1
ElementMetric: Body Id: 0 DetG:   0.000E+00
ElementMetric: Node: 1 Coord:   0.000E+00   0.000E+00   0.000E+00
ElementMetric: Node: 2 Coord:   1.000E+00   0.000E+00   0.000E+00
ElementMetric: Node: 3 Coord:   0.000E+00   1.000E+00   0.000E+00
ElementMetric: Node: 4 Coord:   0.000E+00   0.000E+00   1.000E+00
ElementMetric: Node: 5 Coord:   5.000E-01   0.000E+00   0.000E+00
ElementMetric: Node: 6 Coord:   5.000E-01   5.000E-01   0.000E+00
ElementMetric: Node: 7 Coord:   0.000E+00   5.000E-01   0.000E+00
ElementMetric: Node: 8 Coord:   0.000E+00   0.000E+00   5.000E-01
ElementMetric: Node: 9 Coord:   5.000E-01   0.000E+00   5.000E-01
ElementMetric: Node: 10 Coord:   0.000E+00   5.000E-01   5.000E-01
ElementMetric: Node: 2 dCoord:   1.000E+00   0.000E+00   0.000E+00
ElementMetric: Node: 3 dCoord:   0.000E+00   1.000E+00   0.000E+00
ElementMetric: Node: 4 dCoord:   0.000E+00   0.000E+00   1.000E+00
ElementMetric: Node: 5 dCoord:   5.000E-01   0.000E+00   0.000E+00
ElementMetric: Node: 6 dCoord:   5.000E-01   5.000E-01   0.000E+00
ElementMetric: Node: 7 dCoord:   0.000E+00   5.000E-01   0.000E+00
ElementMetric: Node: 8 dCoord:   0.000E+00   0.000E+00   5.000E-01
ElementMetric: Node: 9 dCoord:   5.000E-01   0.000E+00   5.000E-01
ElementMetric: Node: 10 dCoord:   0.000E+00   5.000E-01   5.000E-01
ElementMetric: Element dim larger than meshdim: 3 vs. 0
ERROR:: ElementMetric: Degenerate 3D element: -1
ElementMetric: Body Id: 0 DetG:   0.000E+00
ElementMetric: Node: 1 Coord:   0.000E+00   0.000E+00   0.000E+00
ElementMetric: Node: 2 Coord:   1.000E+00   0.000E+00   0.000E+00
ElementMetric: Node: 3 Coord:   0.000E+00   1.000E+00   0.000E+00
ElementMetric: Node: 4 Coord:   0.000E+00   0.000E+00   1.000E+00
ElementMetric: Node: 5 Coord:   5.000E-01   0.000E+00   0.000E+00
ElementMetric: Node: 6 Coord:   5.000E-01   5.000E-01   0.000E+00
ElementMetric: Node: 7 Coord:   0.000E+00   5.000E-01   0.000E+00
ElementMetric: Node: 8 Coord:   0.000E+00   0.000E+00   5.000E-01
ElementMetric: Node: 9 Coord:   5.000E-01   0.000E+00   5.000E-01
ElementMetric: Node: 10 Coord:   0.000E+00   5.000E-01   5.000E-01
ElementMetric: Node: 2 dCoord:   1.000E+00   0.000E+00   0.000E+00
ElementMetric: Node: 3 dCoord:   0.000E+00   1.000E+00   0.000E+00
ElementMetric: Node: 4 dCoord:   0.000E+00   0.000E+00   1.000E+00
ElementMetric: Node: 5 dCoord:   5.000E-01   0.000E+00   0.000E+00
ElementMetric: Node: 6 dCoord:   5.000E-01   5.000E-01   0.000E+00
ElementMetric: Node: 7 dCoord:   0.000E+00   5.000E-01   0.000E+00
ElementMetric: Node: 8 dCoord:   0.000E+00   0.000E+00   5.000E-01
ElementMetric: Node: 9 dCoord:   5.000E-01   0.000E+00   5.000E-01
ElementMetric: Node: 10 dCoord:   0.000E+00   5.000E-01   5.000E-01
ElementMetric: Element dim larger than meshdim: 3 vs. 0
ERROR:: ElementMetric: Degenerate 3D element: -1
ElementMetric: Body Id: 0 DetG:   0.000E+00
ElementMetric: Node: 1 Coord:   0.000E+00   0.000E+00   0.000E+00
ElementMetric: Node: 2 Coord:   1.000E+00   0.000E+00   0.000E+00
ElementMetric: Node: 3 Coord:   0.000E+00   1.000E+00   0.000E+00
ElementMetric: Node: 4 Coord:   0.000E+00   0.000E+00   1.000E+00
ElementMetric: Node: 5 Coord:   5.000E-01   0.000E+00   0.000E+00
ElementMetric: Node: 6 Coord:   5.000E-01   5.000E-01   0.000E+00
ElementMetric: Node: 7 Coord:   0.000E+00   5.000E-01   0.000E+00
ElementMetric: Node: 8 Coord:   0.000E+00   0.000E+00   5.000E-01
ElementMetric: Node: 9 Coord:   5.000E-01   0.000E+00   5.000E-01
ElementMetric: Node: 10 Coord:   0.000E+00   5.000E-01   5.000E-01
ElementMetric: Node: 2 dCoord:   1.000E+00   0.000E+00   0.000E+00
ElementMetric: Node: 3 dCoord:   0.000E+00   1.000E+00   0.000E+00
ElementMetric: Node: 4 dCoord:   0.000E+00   0.000E+00   1.000E+00
ElementMetric: Node: 5 dCoord:   5.000E-01   0.000E+00   0.000E+00
ElementMetric: Node: 6 dCoord:   5.000E-01   5.000E-01   0.000E+00
ElementMetric: Node: 7 dCoord:   0.000E+00   5.000E-01   0.000E+00
ElementMetric: Node: 8 dCoord:   0.000E+00   0.000E+00   5.000E-01
ElementMetric: Node: 9 dCoord:   5.000E-01   0.000E+00   5.000E-01
ElementMetric: Node: 10 dCoord:   0.000E+00   5.000E-01   5.000E-01
ElementMetric: Element dim larger than meshdim: 3 vs. 0
ERROR:: ElementMetric: Degenerate 3D element: -1
ElementMetric: Body Id: 0 DetG:   0.000E+00
ElementMetric: Node: 1 Coord:   0.000E+00   0.000E+00   0.000E+00
ElementMetric: Node: 2 Coord:   1.000E+00   0.000E+00   0.000E+00
ElementMetric: Node: 3 Coord:   0.000E+00   1.000E+00   0.000E+00
ElementMetric: Node: 4 Coord:   0.000E+00   0.000E+00   1.000E+00
ElementMetric: Node: 5 Coord:   5.000E-01   0.000E+00   0.000E+00
ElementMetric: Node: 6 Coord:   5.000E-01   5.000E-01   0.000E+00
ElementMetric: Node: 7 Coord:   0.000E+00   5.000E-01   0.000E+00
ElementMetric: Node: 8 Coord:   0.000E+00   0.000E+00   5.000E-01
ElementMetric: Node: 9 Coord:   5.000E-01   0.000E+00   5.000E-01
ElementMetric: Node: 10 Coord:   0.000E+00   5.000E-01   5.000E-01
ElementMetric: Node: 2 dCoord:   1.000E+00   0.000E+00   0.000E+00
ElementMetric: Node: 3 dCoord:   0.000E+00   1.000E+00   0.000E+00
ElementMetric: Node: 4 dCoord:   0.000E+00   0.000E+00   1.000E+00
ElementMetric: Node: 5 dCoord:   5.000E-01   0.000E+00   0.000E+00
ElementMetric: Node: 6 dCoord:   5.000E-01   5.000E-01   0.000E+00
ElementMetric: Node: 7 dCoord:   0.000E+00   5.000E-01   0.000E+00
ElementMetric: Node: 8 dCoord:   0.000E+00   0.000E+00   5.000E-01
ElementMetric: Node: 9 dCoord:   5.000E-01   0.000E+00   5.000E-01
ElementMetric: Node: 10 dCoord:   0.000E+00   5.000E-01   5.000E-01
ElementMetric: Element dim larger than meshdim: 3 vs. 0
ERROR:: ElementMetric: Degenerate 3D element: -1
ElementMetric: Body Id: 0 DetG:   0.000E+00
ElementMetric: Node: 1 Coord:   0.000E+00   0.000E+00   0.000E+00
ElementMetric: Node: 2 Coord:   1.000E+00   0.000E+00   0.000E+00
ElementMetric: Node: 3 Coord:   0.000E+00   1.000E+00   0.000E+00
ElementMetric: Node: 4 Coord:   0.000E+00   0.000E+00   1.000E+00
ElementMetric: Node: 5 Coord:   5.000E-01   0.000E+00   0.000E+00
ElementMetric: Node: 6 Coord:   5.000E-01   5.000E-01   0.000E+00
ElementMetric: Node: 7 Coord:   0.000E+00   5.000E-01   0.000E+00
ElementMetric: Node: 8 Coord:   0.000E+00   0.000E+00   5.000E-01
ElementMetric: Node: 9 Coord:   5.000E-01   0.000E+00   5.000E-01
ElementMetric: Node: 10 Coord:   0.000E+00   5.000E-01   5.000E-01
ElementMetric: Node: 2 dCoord:   1.000E+00   0.000E+00   0.000E+00
ElementMetric: Node: 3 dCoord:   0.000E+00   1.000E+00   0.000E+00
ElementMetric: Node: 4 dCoord:   0.000E+00   0.000E+00   1.000E+00
ElementMetric: Node: 5 dCoord:   5.000E-01   0.000E+00   0.000E+00
ElementMetric: Node: 6 dCoord:   5.000E-01   5.000E-01   0.000E+00
ElementMetric: Node: 7 dCoord:   0.000E+00   5.000E-01   0.000E+00
ElementMetric: Node: 8 dCoord:   0.000E+00   0.000E+00   5.000E-01
ElementMetric: Node: 9 dCoord:   5.000E-01   0.000E+00   5.000E-01
ElementMetric: Node: 10 dCoord:   0.000E+00   5.000E-01   5.000E-01
ElementMetric: Element dim larger than meshdim: 3 vs. 0
ERROR:: ElementMetric: Degenerate 3D element: -1
ElementMetric: Body Id: 0 DetG:   0.000E+00
ElementMetric: Node: 1 Coord:   0.000E+00   0.000E+00   0.000E+00
ElementMetric: Node: 2 Coord:   1.000E+00   0.000E+00   0.000E+00
ElementMetric: Node: 3 Coord:   0.000E+00   1.000E+00   0.000E+00
ElementMetric: Node: 4 Coord:   0.000E+00   0.000E+00   1.000E+00
ElementMetric: Node: 5 Coord:   5.000E-01   0.000E+00   0.000E+00
ElementMetric: Node: 6 Coord:   5.000E-01   5.000E-01   0.000E+00
ElementMetric: Node: 7 Coord:   0.000E+00   5.000E-01   0.000E+00
ElementMetric: Node: 8 Coord:   0.000E+00   0.000E+00   5.000E-01
ElementMetric: Node: 9 Coord:   5.000E-01   0.000E+00   5.000E-01
ElementMetric: Node: 10 Coord:   0.000E+00   5.000E-01   5.000E-01
ElementMetric: Node: 2 dCoord:   1.000E+00   0.000E+00   0.000E+00
ElementMetric: Node: 3 dCoord:   0.000E+00   1.000E+00   0.000E+00
ElementMetric: Node: 4 dCoord:   0.000E+00   0.000E+00   1.000E+00
ElementMetric: Node: 5 dCoord:   5.000E-01   0.000E+00   0.000E+00
ElementMetric: Node: 6 dCoord:   5.000E-01   5.000E-01   0.000E+00
ElementMetric: Node: 7 dCoord:   0.000E+00   5.000E-01   0.000E+00
ElementMetric: Node: 8 dCoord:   0.000E+00   0.000E+00   5.000E-01
ElementMetric: Node: 9 dCoord:   5.000E-01   0.000E+00   5.000E-01
ElementMetric: Node: 10 dCoord:   0.000E+00   5.000E-01   5.000E-01
ElementMetric: Element dim larger than meshdim: 3 vs. 0
ERROR:: ElementMetric: Degenerate 3D element: -1
ElementMetric: Body Id: 0 DetG:   0.000E+00
ElementMetric: Node: 1 Coord:   0.000E+00   0.000E+00   0.000E+00
ElementMetric: Node: 2 Coord:   1.000E+00   0.000E+00   0.000E+00
ElementMetric: Node: 3 Coord:   0.000E+00   1.000E+00   0.000E+00
ElementMetric: Node: 4 Coord:   0.000E+00   0.000E+00   1.000E+00
ElementMetric: Node: 5 Coord:   5.000E-01   0.000E+00   0.000E+00
ElementMetric: Node: 6 Coord:   5.000E-01   5.000E-01   0.000E+00
ElementMetric: Node: 7 Coord:   0.000E+00   5.000E-01   0.000E+00
ElementMetric: Node: 8 Coord:   0.000E+00   0.000E+00   5.000E-01
ElementMetric: Node: 9 Coord:   5.000E-01   0.000E+00   5.000E-01
ElementMetric: Node: 10 Coord:   0.000E+00   5.000E-01   5.000E-01
ElementMetric: Node: 2 dCoord:   1.000E+00   0.000E+00   0.000E+00
ElementMetric: Node: 3 dCoord:   0.000E+00   1.000E+00   0.000E+00
ElementMetric: Node: 4 dCoord:   0.000E+00   0.000E+00   1.000E+00
ElementMetric: Node: 5 dCoord:   5.000E-01   0.000E+00   0.000E+00
ElementMetric: Node: 6 dCoord:   5.000E-01   5.000E-01   0.000E+00
ElementMetric: Node: 7 dCoord:   0.000E+00   5.000E-01   0.000E+00
ElementMetric: Node: 8 dCoord:   0.000E+00   0.000E+00   5.000E-01
ElementMetric: Node: 9 dCoord:   5.000E-01   0.000E+00   5.000E-01
ElementMetric: Node: 10 dCoord:   0.000E+00   5.000E-01   5.000E-01
ElementMetric: Element dim larger than meshdim: 3 vs. 0
ERROR:: ElementMetric: Degenerate 3D element: -1
ElementMetric: Body Id: 0 DetG:   0.000E+00
ElementMetric: Node: 1 Coord:   0.000E+00   0.000E+00   0.000E+00
ElementMetric: Node: 2 Coord:   1.000E+00   0.000E+00   0.000E+00
ElementMetric: Node: 3 Coord:   0.000E+00   1.000E+00   0.000E+00
ElementMetric: Node: 4 Coord:   0.000E+00   0.000E+00   1.000E+00
ElementMetric: Node: 5 Coord:   5.000E-01   0.000E+00   0.000E+00
ElementMetric: Node: 6 Coord:   5.000E-01   5.000E-01   0.000E+00
ElementMetric: Node: 7 Coord:   0.000E+00   5.000E-01   0.000E+00
ElementMetric: Node: 8 Coord:   0.000E+00   0.000E+00   5.000E-01
ElementMetric: Node: 9 Coord:   5.000E-01   0.000E+00   5.000E-01
ElementMetric: Node: 10 Coord:   0.000E+00   5.000E-01   5.000E-01
ElementMetric: Node: 2 dCoord:   1.000E+00   0.000E+00   0.000E+00
ElementMetric: Node: 3 dCoord:   0.000E+00   1.000E+00   0.000E+00
ElementMetric: Node: 4 dCoord:   0.000E+00   0.000E+00   1.000E+00
ElementMetric: Node: 5 dCoord:   5.000E-01   0.000E+00   0.000E+00
ElementMetric: Node: 6 dCoord:   5.000E-01   5.000E-01   0.000E+00
ElementMetric: Node: 7 dCoord:   0.000E+00   5.000E-01   0.000E+00
ElementMetric: Node: 8 dCoord:   0.000E+00   0.000E+00   5.000E-01
ElementMetric: Node: 9 dCoord:   5.000E-01   0.000E+00   5.000E-01
ElementMetric: Node: 10 dCoord:   0.000E+00   5.000E-01   5.000E-01
ElementMetric: Element dim larger than meshdim: 3 vs. 0
ERROR:: ElementMetric: Degenerate 3D element: -1
ElementMetric: Body Id: 0 DetG:   0.000E+00
ElementMetric: Node: 1 Coord:   0.000E+00   0.000E+00   0.000E+00
ElementMetric: Node: 2 Coord:   1.000E+00   0.000E+00   0.000E+00
ElementMetric: Node: 3 Coord:   0.000E+00   1.000E+00   0.000E+00
ElementMetric: Node: 4 Coord:   0.000E+00   0.000E+00   1.000E+00
ElementMetric: Node: 5 Coord:   5.000E-01   0.000E+00   0.000E+00
ElementMetric: Node: 6 Coord:   5.000E-01   5.000E-01   0.000E+00
ElementMetric: Node: 7 Coord:   0.000E+00   5.000E-01   0.000E+00
ElementMetric: Node: 8 Coord:   0.000E+00   0.000E+00   5.000E-01
ElementMetric: Node: 9 Coord:   5.000E-01   0.000E+00   5.000E-01
ElementMetric: Node: 10 Coord:   0.000E+00   5.000E-01   5.000E-01
ElementMetric: Node: 2 dCoord:   1.000E+00   0.000E+00   0.000E+00
ElementMetric: Node: 3 dCoord:   0.000E+00   1.000E+00   0.000E+00
ElementMetric: Node: 4 dCoord:   0.000E+00   0.000E+00   1.000E+00
ElementMetric: Node: 5 dCoord:   5.000E-01   0.000E+00   0.000E+00
ElementMetric: Node: 6 dCoord:   5.000E-01   5.000E-01   0.000E+00
ElementMetric: Node: 7 dCoord:   0.000E+00   5.000E-01   0.000E+00
ElementMetric: Node: 8 dCoord:   0.000E+00   0.000E+00   5.000E-01
ElementMetric: Node: 9 dCoord:   5.000E-01   0.000E+00   5.000E-01
ElementMetric: Node: 10 dCoord:   0.000E+00   5.000E-01   5.000E-01
ElementMetric: Element dim larger than meshdim: 3 vs. 0
ERROR:: ElementMetric: Degenerate 3D element: -1
ElementMetric: Body Id: 0 DetG:   0.000E+00
ElementMetric: Node: 1 Coord:   0.000E+00   0.000E+00   0.000E+00
ElementMetric: Node: 2 Coord:   1.000E+00   0.000E+00   0.000E+00
ElementMetric: Node: 3 Coord:   0.000E+00   1.000E+00   0.000E+00
ElementMetric: Node: 4 Coord:   0.000E+00   0.000E+00   1.000E+00
ElementMetric: Node: 5 Coord:   5.000E-01   0.000E+00   0.000E+00
ElementMetric: Node: 6 Coord:   5.000E-01   5.000E-01   0.000E+00
ElementMetric: Node: 7 Coord:   0.000E+00   5.000E-01   0.000E+00
ElementMetric: Node: 8 Coord:   0.000E+00   0.000E+00   5.000E-01
ElementMetric: Node: 9 Coord:   5.000E-01   0.000E+00   5.000E-01
ElementMetric: Node: 10 Coord:   0.000E+00   5.000E-01   5.000E-01
ElementMetric: Node: 2 dCoord:   1.000E+00   0.000E+00   0.000E+00
ElementMetric: Node: 3 dCoord:   0.000E+00   1.000E+00   0.000E+00
ElementMetric: Node: 4 dCoord:   0.000E+00   0.000E+00   1.000E+00
ElementMetric: Node: 5 dCoord:   5.000E-01   0.000E+00   0.000E+00
ElementMetric: Node: 6 dCoord:   5.000E-01   5.000E-01   0.000E+00
ElementMetric: Node: 7 dCoord:   0.000E+00   5.000E-01   0.000E+00
ElementMetric: Node: 8 dCoord:   0.000E+00   0.000E+00   5.000E-01
ElementMetric: Node: 9 dCoord:   5.000E-01   0.000E+00   5.000E-01
ElementMetric: Node: 10 dCoord:   0.000E+00   5.000E-01   5.000E-01
ElementMetric: Element dim larger than meshdim: 3 vs. 0
ERROR:: ElementMetric: Degenerate 3D element: -1
ElementMetric: Body Id: 0 DetG:   0.000E+00
ElementMetric: Node: 1 Coord:   0.000E+00   0.000E+00   0.000E+00
ElementMetric: Node: 2 Coord:   1.000E+00   0.000E+00   0.000E+00
ElementMetric: Node: 3 Coord:   0.000E+00   1.000E+00   0.000E+00
ElementMetric: Node: 4 Coord:   0.000E+00   0.000E+00   1.000E+00
ElementMetric: Node: 5 Coord:   5.000E-01   0.000E+00   0.000E+00
ElementMetric: Node: 6 Coord:   5.000E-01   5.000E-01   0.000E+00
ElementMetric: Node: 7 Coord:   0.000E+00   5.000E-01   0.000E+00
ElementMetric: Node: 8 Coord:   0.000E+00   0.000E+00   5.000E-01
ElementMetric: Node: 9 Coord:   5.000E-01   0.000E+00   5.000E-01
ElementMetric: Node: 10 Coord:   0.000E+00   5.000E-01   5.000E-01
ElementMetric: Node: 2 dCoord:   1.000E+00   0.000E+00   0.000E+00
ElementMetric: Node: 3 dCoord:   0.000E+00   1.000E+00   0.000E+00
ElementMetric: Node: 4 dCoord:   0.000E+00   0.000E+00   1.000E+00
ElementMetric: Node: 5 dCoord:   5.000E-01   0.000E+00   0.000E+00
ElementMetric: Node: 6 dCoord:   5.000E-01   5.000E-01   0.000E+00
ElementMetric: Node: 7 dCoord:   0.000E+00   5.000E-01   0.000E+00
ElementMetric: Node: 8 dCoord:   0.000E+00   0.000E+00   5.000E-01
ElementMetric: Node: 9 dCoord:   5.000E-01   0.000E+00   5.000E-01
ElementMetric: Node: 10 dCoord:   0.000E+00   5.000E-01   5.000E-01
ElementMetric: Element dim larger than meshdim: 3 vs. 0
ERROR:: ElementMetric: Degenerate 3D element: -1
ElementMetric: Body Id: 0 DetG:   0.000E+00
ElementMetric: Node: 1 Coord:   0.000E+00   0.000E+00   0.000E+00
ElementMetric: Node: 2 Coord:   1.000E+00   0.000E+00   0.000E+00
ElementMetric: Node: 3 Coord:   0.000E+00   1.000E+00   0.000E+00
ElementMetric: Node: 4 Coord:   0.000E+00   0.000E+00   1.000E+00
ElementMetric: Node: 5 Coord:   5.000E-01   0.000E+00   0.000E+00
ElementMetric: Node: 6 Coord:   5.000E-01   5.000E-01   0.000E+00
ElementMetric: Node: 7 Coord:   0.000E+00   5.000E-01   0.000E+00
ElementMetric: Node: 8 Coord:   0.000E+00   0.000E+00   5.000E-01
ElementMetric: Node: 9 Coord:   5.000E-01   0.000E+00   5.000E-01
ElementMetric: Node: 10 Coord:   0.000E+00   5.000E-01   5.000E-01
ElementMetric: Node: 2 dCoord:   1.000E+00   0.000E+00   0.000E+00
ElementMetric: Node: 3 dCoord:   0.000E+00   1.000E+00   0.000E+00
ElementMetric: Node: 4 dCoord:   0.000E+00   0.000E+00   1.000E+00
ElementMetric: Node: 5 dCoord:   5.000E-01   0.000E+00   0.000E+00
ElementMetric: Node: 6 dCoord:   5.000E-01   5.000E-01   0.000E+00
ElementMetric: Node: 7 dCoord:   0.000E+00   5.000E-01   0.000E+00
ElementMetric: Node: 8 dCoord:   0.000E+00   0.000E+00   5.000E-01
ElementMetric: Node: 9 dCoord:   5.000E-01   0.000E+00   5.000E-01
ElementMetric: Node: 10 dCoord:   0.000E+00   5.000E-01   5.000E-01
ElementMetric: Element dim larger than meshdim: 3 vs. 0
ERROR:: ElementMetric: Degenerate 3D element: -1
ElementMetric: Body Id: 0 DetG:   0.000E+00
ElementMetric: Node: 1 Coord:   0.000E+00   0.000E+00   0.000E+00
ElementMetric: Node: 2 Coord:   1.000E+00   0.000E+00   0.000E+00
ElementMetric: Node: 3 Coord:   0.000E+00   1.000E+00   0.000E+00
ElementMetric: Node: 4 Coord:   0.000E+00   0.000E+00   1.000E+00
ElementMetric: Node: 5 Coord:   5.000E-01   0.000E+00   0.000E+00
ElementMetric: Node: 6 Coord:   5.000E-01   5.000E-01   0.000E+00
ElementMetric: Node: 7 Coord:   0.000E+00   5.000E-01   0.000E+00
ElementMetric: Node: 8 Coord:   0.000E+00   0.000E+00   5.000E-01
ElementMetric: Node: 9 Coord:   5.000E-01   0.000E+00   5.000E-01
ElementMetric: Node: 10 Coord:   0.000E+00   5.000E-01   5.000E-01
ElementMetric: Node: 2 dCoord:   1.000E+00   0.000E+00   0.000E+00
ElementMetric: Node: 3 dCoord:   0.000E+00   1.000E+00   0.000E+00
ElementMetric: Node: 4 dCoord:   0.000E+00   0.000E+00   1.000E+00
ElementMetric: Node: 5 dCoord:   5.000E-01   0.000E+00   0.000E+00
ElementMetric: Node: 6 dCoord:   5.000E-01   5.000E-01   0.000E+00
ElementMetric: Node: 7 dCoord:   0.000E+00   5.000E-01   0.000E+00
ElementMetric: Node: 8 dCoord:   0.000E+00   0.000E+00   5.000E-01
ElementMetric: Node: 9 dCoord:   5.000E-01   0.000E+00   5.000E-01
ElementMetric: Node: 10 dCoord:   0.000E+00   5.000E-01   5.000E-01
ElementMetric: Element dim larger than meshdim: 3 vs. 0
ERROR:: ElementMetric: Degenerate 3D element: -1
ElementMetric: Body Id: 0 DetG:   0.000E+00
ElementMetric: Node: 1 Coord:   0.000E+00   0.000E+00   0.000E+00
ElementMetric: Node: 2 Coord:   1.000E+00   0.000E+00   0.000E+00
ElementMetric: Node: 3 Coord:   0.000E+00   1.000E+00   0.000E+00
ElementMetric: Node: 4 Coord:   0.000E+00   0.000E+00   1.000E+00
ElementMetric: Node: 5 Coord:   5.000E-01   0.000E+00   0.000E+00
ElementMetric: Node: 6 Coord:   5.000E-01   5.000E-01   0.000E+00
ElementMetric: Node: 7 Coord:   0.000E+00   5.000E-01   0.000E+00
ElementMetric: Node: 8 Coord:   0.000E+00   0.000E+00   5.000E-01
ElementMetric: Node: 9 Coord:   5.000E-01   0.000E+00   5.000E-01
ElementMetric: Node: 10 Coord:   0.000E+00   5.000E-01   5.000E-01
ElementMetric: Node: 2 dCoord:   1.000E+00   0.000E+00   0.000E+00
ElementMetric: Node: 3 dCoord:   0.000E+00   1.000E+00   0.000E+00
ElementMetric: Node: 4 dCoord:   0.000E+00   0.000E+00   1.000E+00
ElementMetric: Node: 5 dCoord:   5.000E-01   0.000E+00   0.000E+00
ElementMetric: Node: 6 dCoord:   5.000E-01   5.000E-01   0.000E+00
ElementMetric: Node: 7 dCoord:   0.000E+00   5.000E-01   0.000E+00
ElementMetric: Node: 8 dCoord:   0.000E+00   0.000E+00   5.000E-01
ElementMetric: Node: 9 dCoord:   5.000E-01   0.000E+00   5.000E-01
ElementMetric: Node: 10 dCoord:   0.000E+00   5.000E-01   5.000E-01
ElementMetric: Element dim larger than meshdim: 3 vs. 0
ERROR:: ElementMetric: Degenerate 3D element: -1
ElementMetric: Body Id: 0 DetG:   0.000E+00
ElementMetric: Node: 1 Coord:   0.000E+00   0.000E+00   0.000E+00
ElementMetric: Node: 2 Coord:   1.000E+00   0.000E+00   0.000E+00
ElementMetric: Node: 3 Coord:   0.000E+00   1.000E+00   0.000E+00
ElementMetric: Node: 4 Coord:   0.000E+00   0.000E+00   1.000E+00
ElementMetric: Node: 5 Coord:   5.000E-01   0.000E+00   0.000E+00
ElementMetric: Node: 6 Coord:   5.000E-01   5.000E-01   0.000E+00
ElementMetric: Node: 7 Coord:   0.000E+00   5.000E-01   0.000E+00
ElementMetric: Node: 8 Coord:   0.000E+00   0.000E+00   5.000E-01
ElementMetric: Node: 9 Coord:   5.000E-01   0.000E+00   5.000E-01
ElementMetric: Node: 10 Coord:   0.000E+00   5.000E-01   5.000E-01
ElementMetric: Node: 2 dCoord:   1.000E+00   0.000E+00   0.000E+00
ElementMetric: Node: 3 dCoord:   0.000E+00   1.000E+00   0.000E+00
ElementMetric: Node: 4 dCoord:   0.000E+00   0.000E+00   1.000E+00
ElementMetric: Node: 5 dCoord:   5.000E-01   0.000E+00   0.000E+00
ElementMetric: Node: 6 dCoord:   5.000E-01   5.000E-01   0.000E+00
ElementMetric: Node: 7 dCoord:   0.000E+00   5.000E-01   0.000E+00
ElementMetric: Node: 8 dCoord:   0.000E+00   0.000E+00   5.000E-01
ElementMetric: Node: 9 dCoord:   5.000E-01   0.000E+00   5.000E-01
ElementMetric: Node: 10 dCoord:   0.000E+00   5.000E-01   5.000E-01
ElementMetric: Element dim larger than meshdim: 3 vs. 0
ERROR:: ElementMetric: Degenerate 3D element: -1
ElementMetric: Body Id: 0 DetG:   0.000E+00
ElementMetric: Node: 1 Coord:   0.000E+00   0.000E+00   0.000E+00
ElementMetric: Node: 2 Coord:   1.000E+00   0.000E+00   0.000E+00
ElementMetric: Node: 3 Coord:   0.000E+00   1.000E+00   0.000E+00
ElementMetric: Node: 4 Coord:   0.000E+00   0.000E+00   1.000E+00
ElementMetric: Node: 5 Coord:   5.000E-01   0.000E+00   0.000E+00
ElementMetric: Node: 6 Coord:   5.000E-01   5.000E-01   0.000E+00
ElementMetric: Node: 7 Coord:   0.000E+00   5.000E-01   0.000E+00
ElementMetric: Node: 8 Coord:   0.000E+00   0.000E+00   5.000E-01
ElementMetric: Node: 9 Coord:   5.000E-01   0.000E+00   5.000E-01
ElementMetric: Node: 10 Coord:   0.000E+00   5.000E-01   5.000E-01
ElementMetric: Node: 2 dCoord:   1.000E+00   0.000E+00   0.000E+00
ElementMetric: Node: 3 dCoord:   0.000E+00   1.000E+00   0.000E+00
ElementMetric: Node: 4 dCoord:   0.000E+00   0.000E+00   1.000E+00
ElementMetric: Node: 5 dCoord:   5.000E-01   0.000E+00   0.000E+00
ElementMetric: Node: 6 dCoord:   5.000E-01   5.000E-01   0.000E+00
ElementMetric: Node: 7 dCoord:   0.000E+00   5.000E-01   0.000E+00
ElementMetric: Node: 8 dCoord:   0.000E+00   0.000E+00   5.000E-01
ElementMetric: Node: 9 dCoord:   5.000E-01   0.000E+00   5.000E-01
ElementMetric: Node: 10 dCoord:   0.000E+00   5.000E-01   5.000E-01
ElementMetric: Element dim larger than meshdim: 3 vs. 0
ERROR:: ElementMetric: Degenerate 3D element: -1
ElementMetric: Body Id: 0 DetG:   0.000E+00
ElementMetric: Node: 1 Coord:   0.000E+00   0.000E+00   0.000E+00
ElementMetric: Node: 2 Coord:   1.000E+00   0.000E+00   0.000E+00
ElementMetric: Node: 3 Coord:   0.000E+00   1.000E+00   0.000E+00
ElementMetric: Node: 4 Coord:   0.000E+00   0.000E+00   1.000E+00
ElementMetric: Node: 5 Coord:   5.000E-01   0.000E+00   0.000E+00
ElementMetric: Node: 6 Coord:   5.000E-01   5.000E-01   0.000E+00
ElementMetric: Node: 7 Coord:   0.000E+00   5.000E-01   0.000E+00
ElementMetric: Node: 8 Coord:   0.000E+00   0.000E+00   5.000E-01
ElementMetric: Node: 9 Coord:   5.000E-01   0.000E+00   5.000E-01
ElementMetric: Node: 10 Coord:   0.000E+00   5.000E-01   5.000E-01
ElementMetric: Node: 2 dCoord:   1.000E+00   0.000E+00   0.000E+00
ElementMetric: Node: 3 dCoord:   0.000E+00   1.000E+00   0.000E+00
ElementMetric: Node: 4 dCoord:   0.000E+00   0.000E+00   1.000E+00
ElementMetric: Node: 5 dCoord:   5.000E-01   0.000E+00   0.000E+00
ElementMetric: Node: 6 dCoord:   5.000E-01   5.000E-01   0.000E+00
ElementMetric: Node: 7 dCoord:   0.000E+00   5.000E-01   0.000E+00
ElementMetric: Node: 8 dCoord:   0.000E+00   0.000E+00   5.000E-01
ElementMetric: Node: 9 dCoord:   5.000E-01   0.000E+00   5.000E-01
ElementMetric: Node: 10 dCoord:   0.000E+00   5.000E-01   5.000E-01
ElementMetric: Element dim larger than meshdim: 3 vs. 0
ERROR:: ElementMetric: Degenerate 3D element: -1
ElementMetric: Body Id: 0 DetG:   0.000E+00
ElementMetric: Node: 1 Coord:   0.000E+00   0.000E+00   0.000E+00
ElementMetric: Node: 2 Coord:   1.000E+00   0.000E+00   0.000E+00
ElementMetric: Node: 3 Coord:   0.000E+00   1.000E+00   0.000E+00
ElementMetric: Node: 4 Coord:   0.000E+00   0.000E+00   1.000E+00
ElementMetric: Node: 5 Coord:   5.000E-01   0.000E+00   0.000E+00
ElementMetric: Node: 6 Coord:   5.000E-01   5.000E-01   0.000E+00
ElementMetric: Node: 7 Coord:   0.000E+00   5.000E-01   0.000E+00
ElementMetric: Node: 8 Coord:   0.000E+00   0.000E+00   5.000E-01
ElementMetric: Node: 9 Coord:   5.000E-01   0.000E+00   5.000E-01
ElementMetric: Node: 10 Coord:   0.000E+00   5.000E-01   5.000E-01
ElementMetric: Node: 2 dCoord:   1.000E+00   0.000E+00   0.000E+00
ElementMetric: Node: 3 dCoord:   0.000E+00   1.000E+00   0.000E+00
ElementMetric: Node: 4 dCoord:   0.000E+00   0.000E+00   1.000E+00
ElementMetric: Node: 5 dCoord:   5.000E-01   0.000E+00   0.000E+00
ElementMetric: Node: 6 dCoord:   5.000E-01   5.000E-01   0.000E+00
ElementMetric: Node: 7 dCoord:   0.000E+00   5.000E-01   0.000E+00
ElementMetric: Node: 8 dCoord:   0.000E+00   0.000E+00   5.000E-01
ElementMetric: Node: 9 dCoord:   5.000E-01   0.000E+00   5.000E-01
ElementMetric: Node: 10 dCoord:   0.000E+00   5.000E-01   5.000E-01
ElementMetric: Element dim larger than meshdim: 3 vs. 0
ERROR:: ElementMetric: Degenerate 3D element: -1
ElementMetric: Body Id: 0 DetG:   0.000E+00
ElementMetric: Node: 1 Coord:   0.000E+00   0.000E+00   0.000E+00
ElementMetric: Node: 2 Coord:   1.000E+00   0.000E+00   0.000E+00
ElementMetric: Node: 3 Coord:   0.000E+00   1.000E+00   0.000E+00
ElementMetric: Node: 4 Coord:   0.000E+00   0.000E+00   1.000E+00
ElementMetric: Node: 5 Coord:   5.000E-01   0.000E+00   0.000E+00
ElementMetric: Node: 6 Coord:   5.000E-01   5.000E-01   0.000E+00
ElementMetric: Node: 7 Coord:   0.000E+00   5.000E-01   0.000E+00
ElementMetric: Node: 8 Coord:   0.000E+00   0.000E+00   5.000E-01
ElementMetric: Node: 9 Coord:   5.000E-01   0.000E+00   5.000E-01
ElementMetric: Node: 10 Coord:   0.000E+00   5.000E-01   5.000E-01
ElementMetric: Node: 2 dCoord:   1.000E+00   0.000E+00   0.000E+00
ElementMetric: Node: 3 dCoord:   0.000E+00   1.000E+00   0.000E+00
ElementMetric: Node: 4 dCoord:   0.000E+00   0.000E+00   1.000E+00
ElementMetric: Node: 5 dCoord:   5.000E-01   0.000E+00   0.000E+00
ElementMetric: Node: 6 dCoord:   5.000E-01   5.000E-01   0.000E+00
ElementMetric: Node: 7 dCoord:   0.000E+00   5.000E-01   0.000E+00
ElementMetric: Node: 8 dCoord:   0.000E+00   0.000E+00   5.000E-01
ElementMetric: Node: 9 dCoord:   5.000E-01   0.000E+00   5.000E-01
ElementMetric: Node: 10 dCoord:   0.000E+00   5.000E-01   5.000E-01
ElementMetric: Element dim larger than meshdim: 3 vs. 0
ERROR:: ElementMetric: Degenerate 3D element: -1
ElementMetric: Body Id: 0 DetG:   0.000E+00
ElementMetric: Node: 1 Coord:   0.000E+00   0.000E+00   0.000E+00
ElementMetric: Node: 2 Coord:   1.000E+00   0.000E+00   0.000E+00
ElementMetric: Node: 3 Coord:   0.000E+00   1.000E+00   0.000E+00
ElementMetric: Node: 4 Coord:   0.000E+00   0.000E+00   1.000E+00
ElementMetric: Node: 5 Coord:   5.000E-01   0.000E+00   0.000E+00
ElementMetric: Node: 6 Coord:   5.000E-01   5.000E-01   0.000E+00
ElementMetric: Node: 7 Coord:   0.000E+00   5.000E-01   0.000E+00
ElementMetric: Node: 8 Coord:   0.000E+00   0.000E+00   5.000E-01
ElementMetric: Node: 9 Coord:   5.000E-01   0.000E+00   5.000E-01
ElementMetric: Node: 10 Coord:   0.000E+00   5.000E-01   5.000E-01
ElementMetric: Node: 2 dCoord:   1.000E+00   0.000E+00   0.000E+00
ElementMetric: Node: 3 dCoord:   0.000E+00   1.000E+00   0.000E+00
ElementMetric: Node: 4 dCoord:   0.000E+00   0.000E+00   1.000E+00
ElementMetric: Node: 5 dCoord:   5.000E-01   0.000E+00   0.000E+00
ElementMetric: Node: 6 dCoord:   5.000E-01   5.000E-01   0.000E+00
ElementMetric: Node: 7 dCoord:   0.000E+00   5.000E-01   0.000E+00
ElementMetric: Node: 8 dCoord:   0.000E+00   0.000E+00   5.000E-01
ElementMetric: Node: 9 dCoord:   5.000E-01   0.000E+00   5.000E-01
ElementMetric: Node: 10 dCoord:   0.000E+00   5.000E-01   5.000E-01
ElementMetric: Element dim larger than meshdim: 3 vs. 0
ERROR:: ElementMetric: Degenerate 3D element: -1
ElementMetric: Body Id: 0 DetG:   0.000E+00
ElementMetric: Node: 1 Coord:   0.000E+00   0.000E+00   0.000E+00
ElementMetric: Node: 2 Coord:   1.000E+00   0.000E+00   0.000E+00
ElementMetric: Node: 3 Coord:   0.000E+00   1.000E+00   0.000E+00
ElementMetric: Node: 4 Coord:   0.000E+00   0.000E+00   1.000E+00
ElementMetric: Node: 5 Coord:   5.000E-01   0.000E+00   0.000E+00
ElementMetric: Node: 6 Coord:   5.000E-01   5.000E-01   0.000E+00
ElementMetric: Node: 7 Coord:   0.000E+00   5.000E-01   0.000E+00
ElementMetric: Node: 8 Coord:   0.000E+00   0.000E+00   5.000E-01
ElementMetric: Node: 9 Coord:   5.000E-01   0.000E+00   5.000E-01
ElementMetric: Node: 10 Coord:   0.000E+00   5.000E-01   5.000E-01
ElementMetric: Node: 2 dCoord:   1.000E+00   0.000E+00   0.000E+00
ElementMetric: Node: 3 dCoord:   0.000E+00   1.000E+00   0.000E+00
ElementMetric: Node: 4 dCoord:   0.000E+00   0.000E+00   1.000E+00
ElementMetric: Node: 5 dCoord:   5.000E-01   0.000E+00   0.000E+00
ElementMetric: Node: 6 dCoord:   5.000E-01   5.000E-01   0.000E+00
ElementMetric: Node: 7 dCoord:   0.000E+00   5.000E-01   0.000E+00
ElementMetric: Node: 8 dCoord:   0.000E+00   0.000E+00   5.000E-01
ElementMetric: Node: 9 dCoord:   5.000E-01   0.000E+00   5.000E-01
ElementMetric: Node: 10 dCoord:   0.000E+00   5.000E-01   5.000E-01
ElementMetric: Element dim larger than meshdim: 3 vs. 0
ERROR:: ElementMetric: Degenerate 3D element: -1
ElementMetric: Body Id: 0 DetG:   0.000E+00
ElementMetric: Node: 1 Coord:   0.000E+00   0.000E+00   0.000E+00
ElementMetric: Node: 2 Coord:   1.000E+00   0.000E+00   0.000E+00
ElementMetric: Node: 3 Coord:   0.000E+00   1.000E+00   0.000E+00
ElementMetric: Node: 4 Coord:   0.000E+00   0.000E+00   1.000E+00
ElementMetric: Node: 5 Coord:   5.000E-01   0.000E+00   0.000E+00
ElementMetric: Node: 6 Coord:   5.000E-01   5.000E-01   0.000E+00
ElementMetric: Node: 7 Coord:   0.000E+00   5.000E-01   0.000E+00
ElementMetric: Node: 8 Coord:   0.000E+00   0.000E+00   5.000E-01
ElementMetric: Node: 9 Coord:   5.000E-01   0.000E+00   5.000E-01
ElementMetric: Node: 10 Coord:   0.000E+00   5.000E-01   5.000E-01
ElementMetric: Node: 2 dCoord:   1.000E+00   0.000E+00   0.000E+00
ElementMetric: Node: 3 dCoord:   0.000E+00   1.000E+00   0.000E+00
ElementMetric: Node: 4 dCoord:   0.000E+00   0.000E+00   1.000E+00
ElementMetric: Node: 5 dCoord:   5.000E-01   0.000E+00   0.000E+00
ElementMetric: Node: 6 dCoord:   5.000E-01   5.000E-01   0.000E+00
ElementMetric: Node: 7 dCoord:   0.000E+00   5.000E-01   0.000E+00
ElementMetric: Node: 8 dCoord:   0.000E+00   0.000E+00   5.000E-01
ElementMetric: Node: 9 dCoord:   5.000E-01   0.000E+00   5.000E-01
ElementMetric: Node: 10 dCoord:   0.000E+00   5.000E-01   5.000E-01
ElementMetric: Element dim larger than meshdim: 3 vs. 0
ERROR:: ElementMetric: Degenerate 3D element: -1
ElementMetric: Body Id: 0 DetG:   0.000E+00
ElementMetric: Node: 1 Coord:   0.000E+00   0.000E+00   0.000E+00
ElementMetric: Node: 2 Coord:   1.000E+00   0.000E+00   0.000E+00
ElementMetric: Node: 3 Coord:   0.000E+00   1.000E+00   0.000E+00
ElementMetric: Node: 4 Coord:   0.000E+00   0.000E+00   1.000E+00
ElementMetric: Node: 5 Coord:   5.000E-01   0.000E+00   0.000E+00
ElementMetric: Node: 6 Coord:   5.000E-01   5.000E-01   0.000E+00
ElementMetric: Node: 7 Coord:   0.000E+00   5.000E-01   0.000E+00
ElementMetric: Node: 8 Coord:   0.000E+00   0.000E+00   5.000E-01
ElementMetric: Node: 9 Coord:   5.000E-01   0.000E+00   5.000E-01
ElementMetric: Node: 10 Coord:   0.000E+00   5.000E-01   5.000E-01
ElementMetric: Node: 2 dCoord:   1.000E+00   0.000E+00   0.000E+00
ElementMetric: Node: 3 dCoord:   0.000E+00   1.000E+00   0.000E+00
ElementMetric: Node: 4 dCoord:   0.000E+00   0.000E+00   1.000E+00
ElementMetric: Node: 5 dCoord:   5.000E-01   0.000E+00   0.000E+00
ElementMetric: Node: 6 dCoord:   5.000E-01   5.000E-01   0.000E+00
ElementMetric: Node: 7 dCoord:   0.000E+00   5.000E-01   0.000E+00
ElementMetric: Node: 8 dCoord:   0.000E+00   0.000E+00   5.000E-01
ElementMetric: Node: 9 dCoord:   5.000E-01   0.000E+00   5.000E-01
ElementMetric: Node: 10 dCoord:   0.000E+00   5.000E-01   5.000E-01
ElementMetric: Element dim larger than meshdim: 3 vs. 0
ERROR:: ElementMetric: Degenerate 3D element: -1
ElementMetric: Body Id: 0 DetG:   0.000E+00
ElementMetric: Node: 1 Coord:   0.000E+00   0.000E+00   0.000E+00
ElementMetric: Node: 2 Coord:   1.000E+00   0.000E+00   0.000E+00
ElementMetric: Node: 3 Coord:   0.000E+00   1.000E+00   0.000E+00
ElementMetric: Node: 4 Coord:   0.000E+00   0.000E+00   1.000E+00
ElementMetric: Node: 5 Coord:   5.000E-01   0.000E+00   0.000E+00
ElementMetric: Node: 6 Coord:   5.000E-01   5.000E-01   0.000E+00
ElementMetric: Node: 7 Coord:   0.000E+00   5.000E-01   0.000E+00
ElementMetric: Node: 8 Coord:   0.000E+00   0.000E+00   5.000E-01
ElementMetric: Node: 9 Coord:   5.000E-01   0.000E+00   5.000E-01
ElementMetric: Node: 10 Coord:   0.000E+00   5.000E-01   5.000E-01
ElementMetric: Node: 2 dCoord:   1.000E+00   0.000E+00   0.000E+00
ElementMetric: Node: 3 dCoord:   0.000E+00   1.000E+00   0.000E+00
ElementMetric: Node: 4 dCoord:   0.000E+00   0.000E+00   1.000E+00
ElementMetric: Node: 5 dCoord:   5.000E-01   0.000E+00   0.000E+00
ElementMetric: Node: 6 dCoord:   5.000E-01   5.000E-01   0.000E+00
ElementMetric: Node: 7 dCoord:   0.000E+00   5.000E-01   0.000E+00
ElementMetric: Node: 8 dCoord:   0.000E+00   0.000E+00   5.000E-01
ElementMetric: Node: 9 dCoord:   5.000E-01   0.000E+00   5.000E-01
ElementMetric: Node: 10 dCoord:   0.000E+00   5.000E-01   5.000E-01
ElementMetric: Element dim larger than meshdim: 3 vs. 0
ERROR:: ElementMetric: Degenerate 2D element: -1
ElementMetric: Body Id: 0 DetG:   0.000E+00
ElementMetric: Node: 1 Coord:   0.000E+00   0.000E+00   0.000E+00
ElementMetric: Node: 2 Coord:   1.000E+00   0.000E+00   0.000E+00
ElementMetric: Node: 3 Coord:   0.000E+00   1.000E+00   0.000E+00
ElementMetric: Node: 4 Coord:   5.000E-01   0.000E+00   0.000E+00
ElementMetric: Node: 5 Coord:   5.000E-01   5.000E-01   0.000E+00
ElementMetric: Node: 6 Coord:   0.000E+00   5.000E-01   0.000E+00
ElementMetric: Node: 2 dCoord:   1.000E+00   0.000E+00   0.000E+00
ElementMetric: Node: 3 dCoord:   0.000E+00   1.000E+00   0.000E+00
ElementMetric: Node: 4 dCoord:   5.000E-01   0.000E+00   0.000E+00
ElementMetric: Node: 5 dCoord:   5.000E-01   5.000E-01   0.000E+00
ElementMetric: Node: 6 dCoord:   0.000E+00   5.000E-01   0.000E+00
ElementMetric: Element dim larger than meshdim: 2 vs. 0
ERROR:: ElementMetric: Degenerate 2D element: -1
ElementMetric: Body Id: 0 DetG:   0.000E+00
ElementMetric: Node: 1 Coord:   0.000E+00   0.000E+00   0.000E+00
ElementMetric: Node: 2 Coord:   1.000E+00   0.000E+00   0.000E+00
ElementMetric: Node: 3 Coord:   0.000E+00   1.000E+00   0.000E+00
ElementMetric: Node: 4 Coord:   5.000E-01   0.000E+00   0.000E+00
ElementMetric: Node: 5 Coord:   5.000E-01   5.000E-01   0.000E+00
ElementMetric: Node: 6 Coord:   0.000E+00   5.000E-01   0.000E+00
ElementMetric: Node: 2 dCoord:   1.000E+00   0.000E+00   0.000E+00
ElementMetric: Node: 3 dCoord:   0.000E+00   1.000E+00   0.000E+00
ElementMetric: Node: 4 dCoord:   5.000E-01   0.000E+00   0.000E+00
ElementMetric: Node: 5 dCoord:   5.000E-01   5.000E-01   0.000E+00
ElementMetric: Node: 6 dCoord:   0.000E+00   5.000E-01   0.000E+00
ElementMetric: Element dim larger than meshdim: 2 vs. 0
ERROR:: ElementMetric: Degenerate 2D element: -1
ElementMetric: Body Id: 0 DetG:   0.000E+00
ElementMetric: Node: 1 Coord:   0.000E+00   0.000E+00   0.000E+00
ElementMetric: Node: 2 Coord:   1.000E+00   0.000E+00   0.000E+00
ElementMetric: Node: 3 Coord:   0.000E+00   1.000E+00   0.000E+00
ElementMetric: Node: 4 Coord:   5.000E-01   0.000E+00   0.000E+00
ElementMetric: Node: 5 Coord:   5.000E-01   5.000E-01   0.000E+00
ElementMetric: Node: 6 Coord:   0.000E+00   5.000E-01   0.000E+00
ElementMetric: Node: 2 dCoord:   1.000E+00   0.000E+00   0.000E+00
ElementMetric: Node: 3 dCoord:   0.000E+00   1.000E+00   0.000E+00
ElementMetric: Node: 4 dCoord:   5.000E-01   0.000E+00   0.000E+00
ElementMetric: Node: 5 dCoord:   5.000E-01   5.000E-01   0.000E+00
ElementMetric: Node: 6 dCoord:   0.000E+00   5.000E-01   0.000E+00
ElementMetric: Element dim larger than meshdim: 2 vs. 0
ERROR:: ElementMetric: Degenerate 2D element: -1
ElementMetric: Body Id: 0 DetG:   0.000E+00
ElementMetric: Node: 1 Coord:   0.000E+00   0.000E+00   0.000E+00
ElementMetric: Node: 2 Coord:   1.000E+00   0.000E+00   0.000E+00
ElementMetric: Node: 3 Coord:   0.000E+00   1.000E+00   0.000E+00
ElementMetric: Node: 4 Coord:   5.000E-01   0.000E+00   0.000E+00
ElementMetric: Node: 5 Coord:   5.000E-01   5.000E-01   0.000E+00
ElementMetric: Node: 6 Coord:   0.000E+00   5.000E-01   0.000E+00
ElementMetric: Node: 2 dCoord:   1.000E+00   0.000E+00   0.000E+00
ElementMetric: Node: 3 dCoord:   0.000E+00   1.000E+00   0.000E+00
ElementMetric: Node: 4 dCoord:   5.000E-01   0.000E+00   0.000E+00
ElementMetric: Node: 5 dCoord:   5.000E-01   5.000E-01   0.000E+00
ElementMetric: Node: 6 dCoord:   0.000E+00   5.000E-01   0.000E+00
ElementMetric: Element dim larger than meshdim: 2 vs. 0
ERROR:: ElementMetric: Degenerate 2D element: -1
ElementMetric: Body Id: 0 DetG:   0.000E+00
ElementMetric: Node: 1 Coord:   0.000E+00   0.000E+00   0.000E+00
ElementMetric: Node: 2 Coord:   1.000E+00   0.000E+00   0.000E+00
ElementMetric: Node: 3 Coord:   0.000E+00   1.000E+00   0.000E+00
ElementMetric: Node: 4 Coord:   5.000E-01   0.000E+00   0.000E+00
ElementMetric: Node: 5 Coord:   5.000E-01   5.000E-01   0.000E+00
ElementMetric: Node: 6 Coord:   0.000E+00   5.000E-01   0.000E+00
ElementMetric: Node: 2 dCoord:   1.000E+00   0.000E+00   0.000E+00
ElementMetric: Node: 3 dCoord:   0.000E+00   1.000E+00   0.000E+00
ElementMetric: Node: 4 dCoord:   5.000E-01   0.000E+00   0.000E+00
ElementMetric: Node: 5 dCoord:   5.000E-01   5.000E-01   0.000E+00
ElementMetric: Node: 6 dCoord:   0.000E+00   5.000E-01   0.000E+00
ElementMetric: Element dim larger than meshdim: 2 vs. 0
ERROR:: ElementMetric: Degenerate 2D element: -1
ElementMetric: Body Id: 0 DetG:   0.000E+00
ElementMetric: Node: 1 Coord:   0.000E+00   0.000E+00   0.000E+00
ElementMetric: Node: 2 Coord:   1.000E+00   0.000E+00   0.000E+00
ElementMetric: Node: 3 Coord:   0.000E+00   1.000E+00   0.000E+00
ElementMetric: Node: 4 Coord:   5.000E-01   0.000E+00   0.000E+00
ElementMetric: Node: 5 Coord:   5.000E-01   5.000E-01   0.000E+00
ElementMetric: Node: 6 Coord:   0.000E+00   5.000E-01   0.000E+00
ElementMetric: Node: 2 dCoord:   1.000E+00   0.000E+00   0.000E+00
ElementMetric: Node: 3 dCoord:   0.000E+00   1.000E+00   0.000E+00
ElementMetric: Node: 4 dCoord:   5.000E-01   0.000E+00   0.000E+00
ElementMetric: Node: 5 dCoord:   5.000E-01   5.000E-01   0.000E+00
ElementMetric: Node: 6 dCoord:   0.000E+00   5.000E-01   0.000E+00
ElementMetric: Element dim larger than meshdim: 2 vs. 0
ERROR:: ElementMetric: Degenerate 2D element: -1
ElementMetric: Body Id: 0 DetG:   0.000E+00
ElementMetric: Node: 1 Coord:   0.000E+00   0.000E+00   0.000E+00
ElementMetric: Node: 2 Coord:   1.000E+00   0.000E+00   0.000E+00
ElementMetric: Node: 3 Coord:   0.000E+00   1.000E+00   0.000E+00
ElementMetric: Node: 4 Coord:   5.000E-01   0.000E+00   0.000E+00
ElementMetric: Node: 5 Coord:   5.000E-01   5.000E-01   0.000E+00
ElementMetric: Node: 6 Coord:   0.000E+00   5.000E-01   0.000E+00
ElementMetric: Node: 2 dCoord:   1.000E+00   0.000E+00   0.000E+00
ElementMetric: Node: 3 dCoord:   0.000E+00   1.000E+00   0.000E+00
ElementMetric: Node: 4 dCoord:   5.000E-01   0.000E+00   0.000E+00
ElementMetric: Node: 5 dCoord:   5.000E-01   5.000E-01   0.000E+00
ElementMetric: Node: 6 dCoord:   0.000E+00   5.000E-01   0.000E+00
ElementMetric: Element dim larger than meshdim: 2 vs. 0
ERROR:: ElementMetric: Degenerate 2D element: -1
ElementMetric: Body Id: 0 DetG:   0.000E+00
ElementMetric: Node: 1 Coord:   0.000E+00   0.000E+00   0.000E+00
ElementMetric: Node: 2 Coord:   1.000E+00   0.000E+00   0.000E+00
ElementMetric: Node: 3 Coord:   0.000E+00   1.000E+00   0.000E+00
ElementMetric: Node: 4 Coord:   5.000E-01   0.000E+00   0.000E+00
ElementMetric: Node: 5 Coord:   5.000E-01   5.000E-01   0.000E+00
ElementMetric: Node: 6 Coord:   0.000E+00   5.000E-01   0.000E+00
ElementMetric: Node: 2 dCoord:   1.000E+00   0.000E+00   0.000E+00
ElementMetric: Node: 3 dCoord:   0.000E+00   1.000E+00   0.000E+00
ElementMetric: Node: 4 dCoord:   5.000E-01   0.000E+00   0.000E+00
ElementMetric: Node: 5 dCoord:   5.000E-01   5.000E-01   0.000E+00
ElementMetric: Node: 6 dCoord:   0.000E+00   5.000E-01   0.000E+00
ElementMetric: Element dim larger than meshdim: 2 vs. 0
ERROR:: ElementMetric: Degenerate 2D element: -1
ElementMetric: Body Id: 0 DetG:   0.000E+00
ElementMetric: Node: 1 Coord:   0.000E+00   0.000E+00   0.000E+00
ElementMetric: Node: 2 Coord:   1.000E+00   0.000E+00   0.000E+00
ElementMetric: Node: 3 Coord:   0.000E+00   1.000E+00   0.000E+00
ElementMetric: Node: 4 Coord:   5.000E-01   0.000E+00   0.000E+00
ElementMetric: Node: 5 Coord:   5.000E-01   5.000E-01   0.000E+00
ElementMetric: Node: 6 Coord:   0.000E+00   5.000E-01   0.000E+00
ElementMetric: Node: 2 dCoord:   1.000E+00   0.000E+00   0.000E+00
ElementMetric: Node: 3 dCoord:   0.000E+00   1.000E+00   0.000E+00
ElementMetric: Node: 4 dCoord:   5.000E-01   0.000E+00   0.000E+00
ElementMetric: Node: 5 dCoord:   5.000E-01   5.000E-01   0.000E+00
ElementMetric: Node: 6 dCoord:   0.000E+00   5.000E-01   0.000E+00
ElementMetric: Element dim larger than meshdim: 2 vs. 0
ERROR:: ElementMetric: Degenerate 2D element: -1
ElementMetric: Body Id: 0 DetG:   0.000E+00
ElementMetric: Node: 1 Coord:   0.000E+00   0.000E+00   0.000E+00
ElementMetric: Node: 2 Coord:   1.000E+00   0.000E+00   0.000E+00
ElementMetric: Node: 3 Coord:   0.000E+00   1.000E+00   0.000E+00
ElementMetric: Node: 4 Coord:   5.000E-01   0.000E+00   0.000E+00
ElementMetric: Node: 5 Coord:   5.000E-01   5.000E-01   0.000E+00
ElementMetric: Node: 6 Coord:   0.000E+00   5.000E-01   0.000E+00
ElementMetric: Node: 2 dCoord:   1.000E+00   0.000E+00   0.000E+00
ElementMetric: Node: 3 dCoord:   0.000E+00   1.000E+00   0.000E+00
ElementMetric: Node: 4 dCoord:   5.000E-01   0.000E+00   0.000E+00
ElementMetric: Node: 5 dCoord:   5.000E-01   5.000E-01   0.000E+00
ElementMetric: Node: 6 dCoord:   0.000E+00   5.000E-01   0.000E+00
ElementMetric: Element dim larger than meshdim: 2 vs. 0
ERROR:: ElementMetric: Degenerate 2D element: -1
ElementMetric: Body Id: 0 DetG:   0.000E+00
ElementMetric: Node: 1 Coord:   0.000E+00   0.000E+00   0.000E+00
ElementMetric: Node: 2 Coord:   1.000E+00   0.000E+00   0.000E+00
ElementMetric: Node: 3 Coord:   0.000E+00   1.000E+00   0.000E+00
ElementMetric: Node: 4 Coord:   5.000E-01   0.000E+00   0.000E+00
ElementMetric: Node: 5 Coord:   5.000E-01   5.000E-01   0.000E+00
ElementMetric: Node: 6 Coord:   0.000E+00   5.000E-01   0.000E+00
ElementMetric: Node: 2 dCoord:   1.000E+00   0.000E+00   0.000E+00
ElementMetric: Node: 3 dCoord:   0.000E+00   1.000E+00   0.000E+00
ElementMetric: Node: 4 dCoord:   5.000E-01   0.000E+00   0.000E+00
ElementMetric: Node: 5 dCoord:   5.000E-01   5.000E-01   0.000E+00
ElementMetric: Node: 6 dCoord:   0.000E+00   5.000E-01   0.000E+00
ElementMetric: Element dim larger than meshdim: 2 vs. 0
ERROR:: ElementMetric: Degenerate 2D element: -1
ElementMetric: Body Id: 0 DetG:   0.000E+00
ElementMetric: Node: 1 Coord:   0.000E+00   0.000E+00   0.000E+00
ElementMetric: Node: 2 Coord:   1.000E+00   0.000E+00   0.000E+00
ElementMetric: Node: 3 Coord:   0.000E+00   1.000E+00   0.000E+00
ElementMetric: Node: 4 Coord:   5.000E-01   0.000E+00   0.000E+00
ElementMetric: Node: 5 Coord:   5.000E-01   5.000E-01   0.000E+00
ElementMetric: Node: 6 Coord:   0.000E+00   5.000E-01   0.000E+00
ElementMetric: Node: 2 dCoord:   1.000E+00   0.000E+00   0.000E+00
ElementMetric: Node: 3 dCoord:   0.000E+00   1.000E+00   0.000E+00
ElementMetric: Node: 4 dCoord:   5.000E-01   0.000E+00   0.000E+00
ElementMetric: Node: 5 dCoord:   5.000E-01   5.000E-01   0.000E+00
ElementMetric: Node: 6 dCoord:   0.000E+00   5.000E-01   0.000E+00
ElementMetric: Element dim larger than meshdim: 2 vs. 0
LoadMesh: Elapsed REAL time:     2.0019 (s)
MAIN: -------------------------------------
AddVtuOutputSolverHack: Adding ResultOutputSolver to write VTU output in file: case
Loading user function library: [HelmholtzSolve]...[HelmholtzSolver_Init]
Loading user function library: [HelmholtzSolve]...[HelmholtzSolver_bulk]
Loading user function library: [HelmholtzSolve]...[HelmholtzSolver]
OptimizeBandwidth: ---------------------------------------------------------
OptimizeBandwidth: Computing matrix structure for: helmholtz equation...done.
OptimizeBandwidth: Half bandwidth without optimization: 216020
OptimizeBandwidth: 
OptimizeBandwidth: Bandwidth Optimization ...done.
OptimizeBandwidth: Half bandwidth after optimization: 33891
OptimizeBandwidth: ---------------------------------------------------------
Loading user function library: [ResultOutputSolve]...[ResultOutputSolver_Init]
Loading user function library: [ResultOutputSolve]...[ResultOutputSolver_bulk]
Loading user function library: [ResultOutputSolve]...[ResultOutputSolver]
MAIN: 
MAIN: -------------------------------------
MAIN:  Steady state iteration:            1
MAIN: -------------------------------------
MAIN: 
SingleSolver: Attempting to call solver
SingleSolver: Solver Equation string is: helmholtz equation
HelmholtzSolve: 
HelmholtzSolve: -------------------------------------
HelmholtzSolve:  Helmholtz iteration           1
HelmholtzSolve:  Frequency (Hz):    999.99999999999989
HelmholtzSolve: -------------------------------------
HelmholtzSolve: 
HelmholtzSolve: Starting Assembly
HelmholtzSolve: Assembly:
: .................... 38%
: .................... 76%
: ............Assembly done
DefUtils::DefaultDirichletBCs: Setting Dirichlet boundary conditions
DefUtils::DefaultDirichletBCs: Dirichlet boundary conditions set
CRS_ComplexILUT: ILU(T) (Complex), Starting factorization:
CRS_ComplexILUT:  ILU(T) (Complex), NOF nonzeros:     16418320
CRS_ComplexILUT:  ILU(T) (Complex), filling (%):          273
CRS_ComplexILUT: ILU(T) (Complex), Factorization ready at (s):   230.08
IterSolver: Calling complex iterative solver
      10 0.3766E-07
ComputeChange: NS (ITER=1) (NRM,RELC): (  2.8143173      2.0000000     ) :: helmholtz equation
HelmholtzSolve: iter:    1 Assembly: (s)   54.13   54.13
HelmholtzSolve: iter:    1 Solve:    (s)  238.73  238.73
HelmholtzSolve: 
HelmholtzSolve: -------------------------------------
HelmholtzSolve:  Helmholtz iteration           2
HelmholtzSolve:  Frequency (Hz):    999.99999999999989
HelmholtzSolve: -------------------------------------
HelmholtzSolve: 
HelmholtzSolve: Starting Assembly
HelmholtzSolve: Assembly:
: .................... 38%
: .................... 76%
: ............Assembly done
DefUtils::DefaultDirichletBCs: Setting Dirichlet boundary conditions
DefUtils::DefaultDirichletBCs: Dirichlet boundary conditions set
CRS_ComplexILUT: ILU(T) (Complex), Starting factorization:
CRS_ComplexILUT:  ILU(T) (Complex), NOF nonzeros:     16418320
CRS_ComplexILUT:  ILU(T) (Complex), filling (%):          273
CRS_ComplexILUT: ILU(T) (Complex), Factorization ready at (s):   230.40
IterSolver: Calling complex iterative solver
ComputeChange: NS (ITER=2) (NRM,RELC): (  2.8143173      0.0000000     ) :: helmholtz equation
HelmholtzSolve: iter:    2 Assembly: (s)   54.34  108.47
HelmholtzSolve: iter:    2 Solve:    (s)  230.67  469.40
Loading user function library: [HelmholtzSolve]...[HelmholtzSolver_post]
ComputeChange: SS (ITER=1) (NRM,RELC): (  2.8143173      2.0000000     ) :: helmholtz equation
SingleSolver: Attempting to call solver
SingleSolver: Solver Equation string is: internalvtuoutputsolver
ResultOutputSolver: -------------------------------------
ResultOutputSolve: Saving with prefix: case
ResultOutputSolver: Creating list for saving - if not present
CreateListForSaving: Field Variables for Saving
ResultOutputSolver: Saving in unstructured VTK XML (.vtu) format
VtuOutputSolver: Saving results in VTK XML format with prefix: case
VtuOutputSolver: Saving number of partitions: 1
ResultOutputSolver: -------------------------------------
Loading user function library: [ResultOutputSolve]...[ResultOutputSolver_post]
ElmerSolver: *** Elmer Solver: ALL DONE ***
ElmerSolver: The end
SOLVER TOTAL TIME(CPU,REAL):       662.85      654.22
ELMER SOLVER FINISHED AT: 2020/03/07 16:07:21